Initialize SIGNATURE TABLE
ST_SET: 1
ST_WAY: 256
ST_TAG_BIT: 16
ST_TAG_MASK: ffff

Initialize PATTERN TABLE
PT_SET: 512
PT_WAY: 4
SIG_DELTA_BIT: 7
C_SIG_BIT: 4
C_DELTA_BIT: 4

Initialize PREFETCH FILTER
FILTER_SET: 1024

*** ChampSim Multicore Out-of-Order Simulator ***

Warmup Instructions: 50000000
Simulation Instructions: 50000000
Number of CPUs: 1
LLC sets: 2048
LLC ways: 16
Off-chip DRAM Size: 4096 MB Channels: 1 Width: 64-bit Data Rate: 3200 MT/s

CPU 0 runs /home/sankara2004/240C/hw1/ChampSim_2/ChampSim/ipc1_public/client_006.champsimtrace.xz
CPU 0 EPI prefetcher
CPU 0 L1D next line prefetcher
Heartbeat CPU 0 instructions: 10000003 cycles: 4267464 heartbeat IPC: 2.34331 cumulative IPC: 2.34331 (Simulation time: 0 hr 6 min 32 sec) 
Heartbeat CPU 0 instructions: 20000000 cycles: 8307502 heartbeat IPC: 2.47522 cumulative IPC: 2.40746 (Simulation time: 0 hr 13 min 1 sec) 
Heartbeat CPU 0 instructions: 30000003 cycles: 11370597 heartbeat IPC: 3.26467 cumulative IPC: 2.63838 (Simulation time: 0 hr 19 min 32 sec) 
Heartbeat CPU 0 instructions: 40000000 cycles: 14715234 heartbeat IPC: 2.98986 cumulative IPC: 2.71827 (Simulation time: 0 hr 26 min 1 sec) 
Heartbeat CPU 0 instructions: 50000003 cycles: 18820111 heartbeat IPC: 2.43613 cumulative IPC: 2.65673 (Simulation time: 0 hr 32 min 30 sec) 

Warmup complete CPU 0 instructions: 50000003 cycles: 18820111 (Simulation time: 0 hr 32 min 30 sec) 

Heartbeat CPU 0 instructions: 60000001 cycles: 26650732 heartbeat IPC: 1.27704 cumulative IPC: 1.27704 (Simulation time: 0 hr 40 min 45 sec) 
Heartbeat CPU 0 instructions: 70000003 cycles: 36374990 heartbeat IPC: 1.02836 cumulative IPC: 1.13928 (Simulation time: 0 hr 49 min 7 sec) 
Heartbeat CPU 0 instructions: 80000002 cycles: 44650955 heartbeat IPC: 1.20832 cumulative IPC: 1.1614 (Simulation time: 0 hr 57 min 35 sec) 
Heartbeat CPU 0 instructions: 90000003 cycles: 52478321 heartbeat IPC: 1.27757 cumulative IPC: 1.18842 (Simulation time: 1 hr 5 min 49 sec) 
Heartbeat CPU 0 instructions: 100000001 cycles: 60630448 heartbeat IPC: 1.22667 cumulative IPC: 1.19588 (Simulation time: 1 hr 13 min 57 sec) 
Finished CPU 0 instructions: 50000002 cycles: 41810338 cumulative IPC: 1.19588 (Simulation time: 1 hr 13 min 57 sec) 

ChampSim completed all CPUs

Region of Interest Statistics

CPU 0 cumulative IPC: 1.19588 instructions: 50000002 cycles: 41810338
L1D TOTAL     ACCESS:   16600972  HIT:   15873771  MISS:     727201
L1D LOAD      ACCESS:    6369565  HIT:    5963710  MISS:     405855
L1D RFO       ACCESS:    4332549  HIT:    4289939  MISS:      42610
L1D PREFETCH  ACCESS:    5898858  HIT:    5620122  MISS:     278736
L1D WRITEBACK ACCESS:          0  HIT:          0  MISS:          0
L1D PREFETCH  REQUESTED:    6410596  ISSUED:    6229536  USEFUL:     117699  USELESS:     160912
L1D AVERAGE MISS LATENCY: 81.9938 cycles
L1I TOTAL     ACCESS:   25950377  HIT:   25170077  MISS:     780300
L1I LOAD      ACCESS:    8455779  HIT:    8431052  MISS:      24727
L1I RFO       ACCESS:          0  HIT:          0  MISS:          0
L1I PREFETCH  ACCESS:   17494598  HIT:   16739025  MISS:     755573
L1I WRITEBACK ACCESS:          0  HIT:          0  MISS:          0
L1I PREFETCH  REQUESTED:   20406019  ISSUED:   20406019  USEFUL:     681068  USELESS:      74553
L1I AVERAGE MISS LATENCY: 24.9611 cycles
L2C TOTAL     ACCESS:    2159436  HIT:    1614289  MISS:     545147
L2C LOAD      ACCESS:     360202  HIT:     123994  MISS:     236208
L2C RFO       ACCESS:      42347  HIT:      12459  MISS:      29888
L2C PREFETCH  ACCESS:    1580908  HIT:    1302584  MISS:     278324
L2C WRITEBACK ACCESS:     175979  HIT:     175252  MISS:        727
L2C PREFETCH  REQUESTED:    2635798  ISSUED:    2613115  USEFUL:      10273  USELESS:     269154
L2C AVERAGE MISS LATENCY: 118.043 cycles
LLC TOTAL     ACCESS:    1281152  HIT:     894536  MISS:     386616
LLC LOAD      ACCESS:     226363  HIT:     134364  MISS:      91999
LLC RFO       ACCESS:      29888  HIT:       5120  MISS:      24768
LLC PREFETCH  ACCESS:     890973  HIT:     621707  MISS:     269266
LLC WRITEBACK ACCESS:     133928  HIT:     133345  MISS:        583
LLC PREFETCH  REQUESTED:          0  ISSUED:          0  USEFUL:      41783  USELESS:     231367
LLC AVERAGE MISS LATENCY: 202.254 cycles
Major fault: 0 Minor fault: 10527
CPU 0 L1I EPI prefetcher final stats
CPU 0 L1D next line prefetcher final stats

DRAM Statistics
 CHANNEL 0
 RQ ROW_BUFFER_HIT:     102901  ROW_BUFFER_MISS:     283117
 DBUS_CONGESTED:     227003
 WQ ROW_BUFFER_HIT:      21556  ROW_BUFFER_MISS:      93167  FULL:          0

 AVG_CONGESTED_CYCLE: 5

CPU 0 Branch Prediction Accuracy: 98.1683% MPKI: 3.13642 Average ROB Occupancy at Mispredict: 87.1908

Branch types
NOT_BRANCH: 41438057 82.8761%
BRANCH_DIRECT_JUMP: 413829 0.827658%
BRANCH_INDIRECT: 47058 0.094116%
BRANCH_CONDITIONAL: 6843835 13.6877%
BRANCH_DIRECT_CALL: 536885 1.07377%
BRANCH_INDIRECT_CALL: 90642 0.181284%
BRANCH_RETURN: 629329 1.25866%
BRANCH_OTHER: 0 0%

