Initialize SIGNATURE TABLE
ST_SET: 1
ST_WAY: 256
ST_TAG_BIT: 16
ST_TAG_MASK: ffff

Initialize PATTERN TABLE
PT_SET: 512
PT_WAY: 4
SIG_DELTA_BIT: 7
C_SIG_BIT: 4
C_DELTA_BIT: 4

Initialize PREFETCH FILTER
FILTER_SET: 1024

*** ChampSim Multicore Out-of-Order Simulator ***

Warmup Instructions: 50000000
Simulation Instructions: 50000000
Number of CPUs: 1
LLC sets: 2048
LLC ways: 16
Off-chip DRAM Size: 4096 MB Channels: 1 Width: 64-bit Data Rate: 3200 MT/s

CPU 0 runs /home/sankara2004/240C/hw1/ChampSim_2/ChampSim/ipc1_public/client_002.champsimtrace.xz
LHT KB: 126.25
SCC KB: 1.56
Total KB: 127.81
CPU 0 L1D next line prefetcher
Heartbeat CPU 0 instructions: 10000000 cycles: 3405050 heartbeat IPC: 2.93681 cumulative IPC: 2.93681 (Simulation time: 0 hr 5 min 40 sec) 
Heartbeat CPU 0 instructions: 20000002 cycles: 6860871 heartbeat IPC: 2.89367 cumulative IPC: 2.91508 (Simulation time: 0 hr 11 min 19 sec) 
Heartbeat CPU 0 instructions: 30000001 cycles: 10293907 heartbeat IPC: 2.91287 cumulative IPC: 2.91435 (Simulation time: 0 hr 17 min 2 sec) 
Heartbeat CPU 0 instructions: 40000002 cycles: 13727031 heartbeat IPC: 2.9128 cumulative IPC: 2.91396 (Simulation time: 0 hr 22 min 42 sec) 
Heartbeat CPU 0 instructions: 50000002 cycles: 17167809 heartbeat IPC: 2.90632 cumulative IPC: 2.91243 (Simulation time: 0 hr 28 min 20 sec) 

Warmup complete CPU 0 instructions: 50000002 cycles: 17167809 (Simulation time: 0 hr 28 min 20 sec) 

Heartbeat CPU 0 instructions: 60000002 cycles: 23180046 heartbeat IPC: 1.66327 cumulative IPC: 1.66327 (Simulation time: 0 hr 35 min 41 sec) 
Heartbeat CPU 0 instructions: 70000001 cycles: 29254038 heartbeat IPC: 1.64636 cumulative IPC: 1.65478 (Simulation time: 0 hr 43 min 10 sec) 
Heartbeat CPU 0 instructions: 80000002 cycles: 35208589 heartbeat IPC: 1.67939 cumulative IPC: 1.6629 (Simulation time: 0 hr 50 min 44 sec) 
Heartbeat CPU 0 instructions: 90000000 cycles: 41713311 heartbeat IPC: 1.53734 cumulative IPC: 1.62963 (Simulation time: 0 hr 58 min 6 sec) 
Heartbeat CPU 0 instructions: 100000003 cycles: 47715707 heartbeat IPC: 1.666 cumulative IPC: 1.63677 (Simulation time: 1 hr 5 min 18 sec) 
Finished CPU 0 instructions: 50000001 cycles: 30547898 cumulative IPC: 1.63677 (Simulation time: 1 hr 5 min 18 sec) 

ChampSim completed all CPUs

Region of Interest Statistics

CPU 0 cumulative IPC: 1.63677 instructions: 50000001 cycles: 30547898
L1D TOTAL     ACCESS:   19197525  HIT:   18858268  MISS:     339257
L1D LOAD      ACCESS:    6520495  HIT:    6403548  MISS:     116947
L1D RFO       ACCESS:    6420252  HIT:    6330383  MISS:      89869
L1D PREFETCH  ACCESS:    6256778  HIT:    6124337  MISS:     132441
L1D WRITEBACK ACCESS:          0  HIT:          0  MISS:          0
L1D PREFETCH  REQUESTED:    6530842  ISSUED:    6328237  USEFUL:      53585  USELESS:      78998
L1D AVERAGE MISS LATENCY: 49.0391 cycles
L1I TOTAL     ACCESS:   18439399  HIT:   17598380  MISS:     841019
L1I LOAD      ACCESS:    9506999  HIT:    9291749  MISS:     215250
L1I RFO       ACCESS:          0  HIT:          0  MISS:          0
L1I PREFETCH  ACCESS:    8932400  HIT:    8306631  MISS:     625769
L1I WRITEBACK ACCESS:          0  HIT:          0  MISS:          0
L1I PREFETCH  REQUESTED:   10392628  ISSUED:   10392628  USEFUL:     398548  USELESS:     227159
L1I AVERAGE MISS LATENCY: 14.714 cycles
L2C TOTAL     ACCESS:    1620081  HIT:    1377752  MISS:     242329
L2C LOAD      ACCESS:     135861  HIT:      97756  MISS:      38105
L2C RFO       ACCESS:      88787  HIT:      23593  MISS:      65194
L2C PREFETCH  ACCESS:    1269942  HIT:    1131435  MISS:     138507
L2C WRITEBACK ACCESS:     125491  HIT:     124968  MISS:        523
L2C PREFETCH  REQUESTED:     758817  ISSUED:     758448  USEFUL:       9809  USELESS:     127437
L2C AVERAGE MISS LATENCY: 65.1262 cycles
LLC TOTAL     ACCESS:     522130  HIT:     460631  MISS:      61499
LLC LOAD      ACCESS:      38102  HIT:      33004  MISS:       5098
LLC RFO       ACCESS:      65194  HIT:      35411  MISS:      29783
LLC PREFETCH  ACCESS:     335187  HIT:     308799  MISS:      26388
LLC WRITEBACK ACCESS:      83647  HIT:      83417  MISS:        230
LLC PREFETCH  REQUESTED:          0  ISSUED:          0  USEFUL:       4083  USELESS:      20861
LLC AVERAGE MISS LATENCY: 178.355 cycles
Major fault: 0 Minor fault: 3106
CPU 0 L1D next line prefetcher final stats

DRAM Statistics
 CHANNEL 0
 RQ ROW_BUFFER_HIT:      22246  ROW_BUFFER_MISS:      39022
 DBUS_CONGESTED:      45626
 WQ ROW_BUFFER_HIT:       9370  ROW_BUFFER_MISS:      27978  FULL:          0

 AVG_CONGESTED_CYCLE: 6

CPU 0 Branch Prediction Accuracy: 99.2117% MPKI: 1.49752 Average ROB Occupancy at Mispredict: 107.991

Branch types
NOT_BRANCH: 40501616 81.0032%
BRANCH_DIRECT_JUMP: 517397 1.03479%
BRANCH_INDIRECT: 112348 0.224696%
BRANCH_CONDITIONAL: 6698737 13.3975%
BRANCH_DIRECT_CALL: 960974 1.92195%
BRANCH_INDIRECT_CALL: 123707 0.247414%
BRANCH_RETURN: 1084929 2.16986%
BRANCH_OTHER: 0 0%

