Initialize SIGNATURE TABLE
ST_SET: 1
ST_WAY: 256
ST_TAG_BIT: 16
ST_TAG_MASK: ffff

Initialize PATTERN TABLE
PT_SET: 512
PT_WAY: 4
SIG_DELTA_BIT: 7
C_SIG_BIT: 4
C_DELTA_BIT: 4

Initialize PREFETCH FILTER
FILTER_SET: 1024

*** ChampSim Multicore Out-of-Order Simulator ***

Warmup Instructions: 50000000
Simulation Instructions: 50000000
Number of CPUs: 1
LLC sets: 2048
LLC ways: 16
Off-chip DRAM Size: 4096 MB Channels: 1 Width: 64-bit Data Rate: 3200 MT/s

CPU 0 runs /home/sankara2004/240C/hw1/ChampSim_2/ChampSim/ipc1_public/client_006.champsimtrace.xz
LHT KB: 31.56
SCC KB: 1.56
Total KB: 33.12
CPU 0 L1D next line prefetcher
Heartbeat CPU 0 instructions: 10000003 cycles: 4267599 heartbeat IPC: 2.34324 cumulative IPC: 2.34324 (Simulation time: 0 hr 5 min 52 sec) 
Heartbeat CPU 0 instructions: 20000000 cycles: 8308078 heartbeat IPC: 2.47495 cumulative IPC: 2.4073 (Simulation time: 0 hr 11 min 39 sec) 
Heartbeat CPU 0 instructions: 30000003 cycles: 11373000 heartbeat IPC: 3.26273 cumulative IPC: 2.63783 (Simulation time: 0 hr 17 min 26 sec) 
Heartbeat CPU 0 instructions: 40000000 cycles: 14718939 heartbeat IPC: 2.9887 cumulative IPC: 2.71759 (Simulation time: 0 hr 23 min 11 sec) 
Heartbeat CPU 0 instructions: 50000003 cycles: 18824033 heartbeat IPC: 2.436 cumulative IPC: 2.65618 (Simulation time: 0 hr 28 min 52 sec) 

Warmup complete CPU 0 instructions: 50000003 cycles: 18824033 (Simulation time: 0 hr 28 min 52 sec) 

Heartbeat CPU 0 instructions: 60000001 cycles: 26752349 heartbeat IPC: 1.2613 cumulative IPC: 1.2613 (Simulation time: 0 hr 36 min 20 sec) 
Heartbeat CPU 0 instructions: 70000003 cycles: 36475069 heartbeat IPC: 1.02852 cumulative IPC: 1.13308 (Simulation time: 0 hr 44 min 1 sec) 
Heartbeat CPU 0 instructions: 80000002 cycles: 44941079 heartbeat IPC: 1.18119 cumulative IPC: 1.14868 (Simulation time: 0 hr 51 min 49 sec) 
Heartbeat CPU 0 instructions: 90000003 cycles: 52762903 heartbeat IPC: 1.27847 cumulative IPC: 1.17859 (Simulation time: 0 hr 59 min 24 sec) 
Heartbeat CPU 0 instructions: 100000001 cycles: 61068300 heartbeat IPC: 1.20404 cumulative IPC: 1.18359 (Simulation time: 1 hr 6 min 51 sec) 
Finished CPU 0 instructions: 50000002 cycles: 42244268 cumulative IPC: 1.18359 (Simulation time: 1 hr 6 min 51 sec) 

ChampSim completed all CPUs

Region of Interest Statistics

CPU 0 cumulative IPC: 1.18359 instructions: 50000002 cycles: 42244268
L1D TOTAL     ACCESS:   16603939  HIT:   15876879  MISS:     727060
L1D LOAD      ACCESS:    6370049  HIT:    5963897  MISS:     406152
L1D RFO       ACCESS:    4334422  HIT:    4291810  MISS:      42612
L1D PREFETCH  ACCESS:    5899468  HIT:    5621172  MISS:     278296
L1D WRITEBACK ACCESS:          0  HIT:          0  MISS:          0
L1D PREFETCH  REQUESTED:    6411308  ISSUED:    6230556  USEFUL:     117268  USELESS:     160903
L1D AVERAGE MISS LATENCY: 81.7626 cycles
L1I TOTAL     ACCESS:   15931025  HIT:   15004253  MISS:     926772
L1I LOAD      ACCESS:    8455679  HIT:    8409702  MISS:      45977
L1I RFO       ACCESS:          0  HIT:          0  MISS:          0
L1I PREFETCH  ACCESS:    7475346  HIT:    6594551  MISS:     880795
L1I WRITEBACK ACCESS:          0  HIT:          0  MISS:          0
L1I PREFETCH  REQUESTED:    8474236  ISSUED:    8474236  USEFUL:     653204  USELESS:     227757
L1I AVERAGE MISS LATENCY: 22.5957 cycles
L2C TOTAL     ACCESS:    2385714  HIT:    1823058  MISS:     562656
L2C LOAD      ACCESS:     347211  HIT:     109797  MISS:     237414
L2C RFO       ACCESS:      42358  HIT:      12296  MISS:      30062
L2C PREFETCH  ACCESS:    1820162  HIT:    1525845  MISS:     294317
L2C WRITEBACK ACCESS:     175983  HIT:     175120  MISS:        863
L2C PREFETCH  REQUESTED:    2520879  ISSUED:    2496727  USEFUL:      10570  USELESS:     285055
L2C AVERAGE MISS LATENCY: 116.67 cycles
LLC TOTAL     ACCESS:    1257243  HIT:     862784  MISS:     394459
LLC LOAD      ACCESS:     227217  HIT:     134438  MISS:      92779
LLC RFO       ACCESS:      30060  HIT:       5246  MISS:      24814
LLC PREFETCH  ACCESS:     865543  HIT:     589211  MISS:     276332
LLC WRITEBACK ACCESS:     134423  HIT:     133889  MISS:        534
LLC PREFETCH  REQUESTED:          0  ISSUED:          0  USEFUL:      41901  USELESS:     237888
LLC AVERAGE MISS LATENCY: 199.12 cycles
Major fault: 0 Minor fault: 10547
CPU 0 L1D next line prefetcher final stats

DRAM Statistics
 CHANNEL 0
 RQ ROW_BUFFER_HIT:     106238  ROW_BUFFER_MISS:     287668
 DBUS_CONGESTED:     233868
 WQ ROW_BUFFER_HIT:      21440  ROW_BUFFER_MISS:      93530  FULL:          0

 AVG_CONGESTED_CYCLE: 5

CPU 0 Branch Prediction Accuracy: 98.1683% MPKI: 3.13642 Average ROB Occupancy at Mispredict: 86.0145

Branch types
NOT_BRANCH: 41438057 82.8761%
BRANCH_DIRECT_JUMP: 413829 0.827658%
BRANCH_INDIRECT: 47058 0.094116%
BRANCH_CONDITIONAL: 6843835 13.6877%
BRANCH_DIRECT_CALL: 536885 1.07377%
BRANCH_INDIRECT_CALL: 90642 0.181284%
BRANCH_RETURN: 629329 1.25866%
BRANCH_OTHER: 0 0%

