Initialize SIGNATURE TABLE
ST_SET: 1
ST_WAY: 256
ST_TAG_BIT: 16
ST_TAG_MASK: ffff

Initialize PATTERN TABLE
PT_SET: 512
PT_WAY: 4
SIG_DELTA_BIT: 7
C_SIG_BIT: 4
C_DELTA_BIT: 4

Initialize PREFETCH FILTER
FILTER_SET: 1024

*** ChampSim Multicore Out-of-Order Simulator ***

Warmup Instructions: 50000000
Simulation Instructions: 50000000
Number of CPUs: 1
LLC sets: 2048
LLC ways: 16
Off-chip DRAM Size: 4096 MB Channels: 1 Width: 64-bit Data Rate: 3200 MT/s

CPU 0 runs /home/sankara2004/240C/hw1/ChampSim_2/ChampSim/ipc1_public/client_003.champsimtrace.xz
LHT KB: 31.56
SCC KB: 1.56
Total KB: 33.12
CPU 0 L1D next line prefetcher
Heartbeat CPU 0 instructions: 10000000 cycles: 3478516 heartbeat IPC: 2.87479 cumulative IPC: 2.87479 (Simulation time: 0 hr 5 min 49 sec) 
Heartbeat CPU 0 instructions: 20000002 cycles: 6933238 heartbeat IPC: 2.89459 cumulative IPC: 2.88466 (Simulation time: 0 hr 11 min 33 sec) 
Heartbeat CPU 0 instructions: 30000003 cycles: 10494430 heartbeat IPC: 2.80805 cumulative IPC: 2.85866 (Simulation time: 0 hr 17 min 20 sec) 
Heartbeat CPU 0 instructions: 40000001 cycles: 14111082 heartbeat IPC: 2.76499 cumulative IPC: 2.83465 (Simulation time: 0 hr 23 min 3 sec) 
Heartbeat CPU 0 instructions: 50000003 cycles: 17656408 heartbeat IPC: 2.82062 cumulative IPC: 2.83183 (Simulation time: 0 hr 28 min 43 sec) 

Warmup complete CPU 0 instructions: 50000003 cycles: 17656408 (Simulation time: 0 hr 28 min 43 sec) 

Heartbeat CPU 0 instructions: 60000002 cycles: 24036840 heartbeat IPC: 1.56729 cumulative IPC: 1.56729 (Simulation time: 0 hr 36 min 11 sec) 
Heartbeat CPU 0 instructions: 70000001 cycles: 30184978 heartbeat IPC: 1.62651 cumulative IPC: 1.59635 (Simulation time: 0 hr 43 min 58 sec) 
Heartbeat CPU 0 instructions: 80000003 cycles: 37143049 heartbeat IPC: 1.43718 cumulative IPC: 1.53952 (Simulation time: 0 hr 51 min 44 sec) 
Heartbeat CPU 0 instructions: 90000000 cycles: 46149313 heartbeat IPC: 1.11034 cumulative IPC: 1.40386 (Simulation time: 0 hr 59 min 20 sec) 
Heartbeat CPU 0 instructions: 100000003 cycles: 57029224 heartbeat IPC: 0.919125 cumulative IPC: 1.26991 (Simulation time: 1 hr 6 min 49 sec) 
Finished CPU 0 instructions: 50000000 cycles: 39372816 cumulative IPC: 1.26991 (Simulation time: 1 hr 6 min 49 sec) 

ChampSim completed all CPUs

Region of Interest Statistics

CPU 0 cumulative IPC: 1.26991 instructions: 50000000 cycles: 39372816
L1D TOTAL     ACCESS:   17657023  HIT:   17161036  MISS:     495987
L1D LOAD      ACCESS:    6051299  HIT:    5924995  MISS:     126304
L1D RFO       ACCESS:    5944306  HIT:    5709876  MISS:     234430
L1D PREFETCH  ACCESS:    5661418  HIT:    5526165  MISS:     135253
L1D WRITEBACK ACCESS:          0  HIT:          0  MISS:          0
L1D PREFETCH  REQUESTED:    6093473  ISSUED:    5952073  USEFUL:      67351  USELESS:      67951
L1D AVERAGE MISS LATENCY: 123.725 cycles
L1I TOTAL     ACCESS:   20529367  HIT:   19628167  MISS:     901200
L1I LOAD      ACCESS:    9443829  HIT:    9296201  MISS:     147628
L1I RFO       ACCESS:          0  HIT:          0  MISS:          0
L1I PREFETCH  ACCESS:   11085538  HIT:   10331966  MISS:     753572
L1I WRITEBACK ACCESS:          0  HIT:          0  MISS:          0
L1I PREFETCH  REQUESTED:   13305883  ISSUED:   13305877  USEFUL:     403763  USELESS:     349877
L1I AVERAGE MISS LATENCY: 20.0983 cycles
L2C TOTAL     ACCESS:    2113510  HIT:    1671413  MISS:     442097
L2C LOAD      ACCESS:     127923  HIT:      86339  MISS:      41584
L2C RFO       ACCESS:     232350  HIT:      23616  MISS:     208734
L2C PREFETCH  ACCESS:    1483937  HIT:    1293729  MISS:     190208
L2C WRITEBACK ACCESS:     269300  HIT:     267729  MISS:       1571
L2C PREFETCH  REQUESTED:    1143247  ISSUED:    1142857  USEFUL:      11822  USELESS:     178459
L2C AVERAGE MISS LATENCY: 158.537 cycles
LLC TOTAL     ACCESS:     937883  HIT:     642728  MISS:     295155
LLC LOAD      ACCESS:      41466  HIT:      29921  MISS:      11545
LLC RFO       ACCESS:     208726  HIT:      34757  MISS:     173969
LLC PREFETCH  ACCESS:     460818  HIT:     351555  MISS:     109263
LLC WRITEBACK ACCESS:     226873  HIT:     226495  MISS:        378
LLC PREFETCH  REQUESTED:          0  ISSUED:          0  USEFUL:       8251  USELESS:     101567
LLC AVERAGE MISS LATENCY: 231.57 cycles
Major fault: 0 Minor fault: 5093
CPU 0 L1D next line prefetcher final stats

DRAM Statistics
 CHANNEL 0
 RQ ROW_BUFFER_HIT:     103712  ROW_BUFFER_MISS:     191063
 DBUS_CONGESTED:     266182
 WQ ROW_BUFFER_HIT:      58896  ROW_BUFFER_MISS:     121518  FULL:          0

 AVG_CONGESTED_CYCLE: 6

CPU 0 Branch Prediction Accuracy: 98.6631% MPKI: 2.66884 Average ROB Occupancy at Mispredict: 76.8581

Branch types
NOT_BRANCH: 40018780 80.0376%
BRANCH_DIRECT_JUMP: 370861 0.741722%
BRANCH_INDIRECT: 83253 0.166506%
BRANCH_CONDITIONAL: 7877436 15.7549%
BRANCH_DIRECT_CALL: 722316 1.44463%
BRANCH_INDIRECT_CALL: 101901 0.203802%
BRANCH_RETURN: 825355 1.65071%
BRANCH_OTHER: 0 0%

