Initialize SIGNATURE TABLE
ST_SET: 1
ST_WAY: 256
ST_TAG_BIT: 16
ST_TAG_MASK: ffff

Initialize PATTERN TABLE
PT_SET: 512
PT_WAY: 4
SIG_DELTA_BIT: 7
C_SIG_BIT: 4
C_DELTA_BIT: 4

Initialize PREFETCH FILTER
FILTER_SET: 1024

*** ChampSim Multicore Out-of-Order Simulator ***

Warmup Instructions: 50000000
Simulation Instructions: 50000000
Number of CPUs: 1
LLC sets: 2048
LLC ways: 16
Off-chip DRAM Size: 4096 MB Channels: 1 Width: 64-bit Data Rate: 3200 MT/s

CPU 0 runs /home/sankara2004/240C/hw1/ChampSim_2/ChampSim/ipc1_public/client_004.champsimtrace.xz
LHT KB: 252.50
SCC KB: 1.56
Total KB: 254.06
CPU 0 L1D next line prefetcher
Heartbeat CPU 0 instructions: 10000000 cycles: 3593199 heartbeat IPC: 2.78304 cumulative IPC: 2.78304 (Simulation time: 0 hr 5 min 56 sec) 
Heartbeat CPU 0 instructions: 20000003 cycles: 7058053 heartbeat IPC: 2.88613 cumulative IPC: 2.83364 (Simulation time: 0 hr 11 min 41 sec) 
Heartbeat CPU 0 instructions: 30000000 cycles: 10649894 heartbeat IPC: 2.78409 cumulative IPC: 2.81693 (Simulation time: 0 hr 17 min 27 sec) 
Heartbeat CPU 0 instructions: 40000003 cycles: 14331085 heartbeat IPC: 2.71651 cumulative IPC: 2.79114 (Simulation time: 0 hr 23 min 11 sec) 
Heartbeat CPU 0 instructions: 50000001 cycles: 17849718 heartbeat IPC: 2.84201 cumulative IPC: 2.80116 (Simulation time: 0 hr 28 min 54 sec) 

Warmup complete CPU 0 instructions: 50000001 cycles: 17849718 (Simulation time: 0 hr 28 min 54 sec) 

Heartbeat CPU 0 instructions: 60000002 cycles: 25505541 heartbeat IPC: 1.3062 cumulative IPC: 1.3062 (Simulation time: 0 hr 36 min 27 sec) 
Heartbeat CPU 0 instructions: 70000001 cycles: 33228820 heartbeat IPC: 1.29479 cumulative IPC: 1.30047 (Simulation time: 0 hr 44 min 8 sec) 
Heartbeat CPU 0 instructions: 80000002 cycles: 41766752 heartbeat IPC: 1.17124 cumulative IPC: 1.25434 (Simulation time: 0 hr 51 min 57 sec) 
Heartbeat CPU 0 instructions: 90000000 cycles: 49754848 heartbeat IPC: 1.25186 cumulative IPC: 1.25372 (Simulation time: 0 hr 59 min 32 sec) 
Heartbeat CPU 0 instructions: 100000001 cycles: 57470019 heartbeat IPC: 1.29615 cumulative IPC: 1.26198 (Simulation time: 1 hr 6 min 58 sec) 
Finished CPU 0 instructions: 50000000 cycles: 39620301 cumulative IPC: 1.26198 (Simulation time: 1 hr 6 min 58 sec) 

ChampSim completed all CPUs

Region of Interest Statistics

CPU 0 cumulative IPC: 1.26198 instructions: 50000000 cycles: 39620301
L1D TOTAL     ACCESS:   21921434  HIT:   21032530  MISS:     888904
L1D LOAD      ACCESS:    8706315  HIT:    8309936  MISS:     396379
L1D RFO       ACCESS:    4805044  HIT:    4683429  MISS:     121615
L1D PREFETCH  ACCESS:    8410075  HIT:    8039165  MISS:     370910
L1D WRITEBACK ACCESS:          0  HIT:          0  MISS:          0
L1D PREFETCH  REQUESTED:    8747181  ISSUED:    8587482  USEFUL:     132488  USELESS:     238430
L1D AVERAGE MISS LATENCY: 31.0777 cycles
L1I TOTAL     ACCESS:   20122370  HIT:   18420772  MISS:    1701598
L1I LOAD      ACCESS:    9402649  HIT:    9267138  MISS:     135511
L1I RFO       ACCESS:          0  HIT:          0  MISS:          0
L1I PREFETCH  ACCESS:   10719721  HIT:    9153634  MISS:    1566087
L1I WRITEBACK ACCESS:          0  HIT:          0  MISS:          0
L1I PREFETCH  REQUESTED:   12648929  ISSUED:   12648929  USEFUL:     572421  USELESS:     993641
L1I AVERAGE MISS LATENCY: 20.314 cycles
L2C TOTAL     ACCESS:    3685853  HIT:    3337985  MISS:     347868
L2C LOAD      ACCESS:     411307  HIT:     358342  MISS:      52965
L2C RFO       ACCESS:     117455  HIT:      42490  MISS:      74965
L2C PREFETCH  ACCESS:    2935081  HIT:    2716489  MISS:     218592
L2C WRITEBACK ACCESS:     222010  HIT:     220664  MISS:       1346
L2C PREFETCH  REQUESTED:    1852784  ISSUED:    1852353  USEFUL:      24409  USELESS:     192213
L2C AVERAGE MISS LATENCY: 83.5988 cycles
LLC TOTAL     ACCESS:     805604  HIT:     669826  MISS:     135778
LLC LOAD      ACCESS:      52960  HIT:      40214  MISS:      12746
LLC RFO       ACCESS:      74965  HIT:      42744  MISS:      32221
LLC PREFETCH  ACCESS:     571514  HIT:     480817  MISS:      90697
LLC WRITEBACK ACCESS:     106165  HIT:     106051  MISS:        114
LLC PREFETCH  REQUESTED:          0  ISSUED:          0  USEFUL:      13796  USELESS:      74203
LLC AVERAGE MISS LATENCY: 190.864 cycles
Major fault: 0 Minor fault: 3989
CPU 0 L1D next line prefetcher final stats

DRAM Statistics
 CHANNEL 0
 RQ ROW_BUFFER_HIT:      35160  ROW_BUFFER_MISS:     100481
 DBUS_CONGESTED:      66403
 WQ ROW_BUFFER_HIT:       8158  ROW_BUFFER_MISS:      37465  FULL:          0

 AVG_CONGESTED_CYCLE: 6

CPU 0 Branch Prediction Accuracy: 94.1242% MPKI: 11.6089 Average ROB Occupancy at Mispredict: 57.0562

Branch types
NOT_BRANCH: 40121080 80.2422%
BRANCH_DIRECT_JUMP: 644555 1.28911%
BRANCH_INDIRECT: 201946 0.403892%
BRANCH_CONDITIONAL: 7003557 14.0071%
BRANCH_DIRECT_CALL: 564821 1.12964%
BRANCH_INDIRECT_CALL: 445012 0.890024%
BRANCH_RETURN: 1018716 2.03743%
BRANCH_OTHER: 0 0%

