Initialize SIGNATURE TABLE
ST_SET: 1
ST_WAY: 256
ST_TAG_BIT: 16
ST_TAG_MASK: ffff

Initialize PATTERN TABLE
PT_SET: 512
PT_WAY: 4
SIG_DELTA_BIT: 7
C_SIG_BIT: 4
C_DELTA_BIT: 4

Initialize PREFETCH FILTER
FILTER_SET: 1024

*** ChampSim Multicore Out-of-Order Simulator ***

Warmup Instructions: 50000000
Simulation Instructions: 50000000
Number of CPUs: 1
LLC sets: 2048
LLC ways: 16
Off-chip DRAM Size: 4096 MB Channels: 1 Width: 64-bit Data Rate: 3200 MT/s

CPU 0 runs /home/sankara2004/240C/hw1/ChampSim_2/ChampSim/ipc1_public/client_004.champsimtrace.xz
LHT KB: 126.25
SCC KB: 1.56
Total KB: 127.81
CPU 0 L1D next line prefetcher
Heartbeat CPU 0 instructions: 10000000 cycles: 3592193 heartbeat IPC: 2.78381 cumulative IPC: 2.78381 (Simulation time: 0 hr 5 min 42 sec) 
Heartbeat CPU 0 instructions: 20000003 cycles: 7056648 heartbeat IPC: 2.88646 cumulative IPC: 2.83421 (Simulation time: 0 hr 11 min 20 sec) 
Heartbeat CPU 0 instructions: 30000000 cycles: 10647171 heartbeat IPC: 2.78511 cumulative IPC: 2.81765 (Simulation time: 0 hr 17 min 3 sec) 
Heartbeat CPU 0 instructions: 40000003 cycles: 14327830 heartbeat IPC: 2.71691 cumulative IPC: 2.79177 (Simulation time: 0 hr 22 min 42 sec) 
Heartbeat CPU 0 instructions: 50000001 cycles: 17845460 heartbeat IPC: 2.84282 cumulative IPC: 2.80183 (Simulation time: 0 hr 28 min 19 sec) 

Warmup complete CPU 0 instructions: 50000001 cycles: 17845460 (Simulation time: 0 hr 28 min 19 sec) 

Heartbeat CPU 0 instructions: 60000002 cycles: 25581580 heartbeat IPC: 1.29264 cumulative IPC: 1.29264 (Simulation time: 0 hr 35 min 41 sec) 
Heartbeat CPU 0 instructions: 70000001 cycles: 33327179 heartbeat IPC: 1.29106 cumulative IPC: 1.29185 (Simulation time: 0 hr 43 min 10 sec) 
Heartbeat CPU 0 instructions: 80000002 cycles: 42035941 heartbeat IPC: 1.14827 cumulative IPC: 1.24016 (Simulation time: 0 hr 50 min 45 sec) 
Heartbeat CPU 0 instructions: 90000000 cycles: 50067356 heartbeat IPC: 1.24511 cumulative IPC: 1.24139 (Simulation time: 0 hr 58 min 7 sec) 
Heartbeat CPU 0 instructions: 100000001 cycles: 57941947 heartbeat IPC: 1.26991 cumulative IPC: 1.24699 (Simulation time: 1 hr 5 min 18 sec) 
Finished CPU 0 instructions: 50000000 cycles: 40096487 cumulative IPC: 1.24699 (Simulation time: 1 hr 5 min 18 sec) 

ChampSim completed all CPUs

Region of Interest Statistics

CPU 0 cumulative IPC: 1.24699 instructions: 50000000 cycles: 40096487
L1D TOTAL     ACCESS:   21938885  HIT:   21049953  MISS:     888932
L1D LOAD      ACCESS:    8713717  HIT:    8317496  MISS:     396221
L1D RFO       ACCESS:    4806525  HIT:    4684998  MISS:     121527
L1D PREFETCH  ACCESS:    8418643  HIT:    8047459  MISS:     371184
L1D WRITEBACK ACCESS:          0  HIT:          0  MISS:          0
L1D PREFETCH  REQUESTED:    8754136  ISSUED:    8594626  USEFUL:     132724  USELESS:     238468
L1D AVERAGE MISS LATENCY: 30.8203 cycles
L1I TOTAL     ACCESS:   17728173  HIT:   16648509  MISS:    1079664
L1I LOAD      ACCESS:    9380381  HIT:    9206596  MISS:     173785
L1I RFO       ACCESS:          0  HIT:          0  MISS:          0
L1I PREFETCH  ACCESS:    8347792  HIT:    7441913  MISS:     905879
L1I WRITEBACK ACCESS:          0  HIT:          0  MISS:          0
L1I PREFETCH  REQUESTED:    9587995  ISSUED:    9587995  USEFUL:     448819  USELESS:     457040
L1I AVERAGE MISS LATENCY: 22.6632 cycles
L2C TOTAL     ACCESS:    2914299  HIT:    2585193  MISS:     329106
L2C LOAD      ACCESS:     407058  HIT:     355950  MISS:      51108
L2C RFO       ACCESS:     117468  HIT:      42612  MISS:      74856
L2C PREFETCH  ACCESS:    2167772  HIT:    1965706  MISS:     202066
L2C WRITEBACK ACCESS:     222001  HIT:     220925  MISS:       1076
L2C PREFETCH  REQUESTED:    1524557  ISSUED:    1524391  USEFUL:      23046  USELESS:     177131
L2C AVERAGE MISS LATENCY: 88.5521 cycles
LLC TOTAL     ACCESS:     687319  HIT:     545044  MISS:     142275
LLC LOAD      ACCESS:      51103  HIT:      36868  MISS:      14235
LLC RFO       ACCESS:      74855  HIT:      42392  MISS:      32463
LLC PREFETCH  ACCESS:     456442  HIT:     361063  MISS:      95379
LLC WRITEBACK ACCESS:     104919  HIT:     104721  MISS:        198
LLC PREFETCH  REQUESTED:          0  ISSUED:          0  USEFUL:      13964  USELESS:      79167
LLC AVERAGE MISS LATENCY: 184.79 cycles
Major fault: 0 Minor fault: 3986
CPU 0 L1D next line prefetcher final stats

DRAM Statistics
 CHANNEL 0
 RQ ROW_BUFFER_HIT:      37486  ROW_BUFFER_MISS:     104572
 DBUS_CONGESTED:      76379
 WQ ROW_BUFFER_HIT:       8604  ROW_BUFFER_MISS:      37783  FULL:          0

 AVG_CONGESTED_CYCLE: 6

CPU 0 Branch Prediction Accuracy: 94.1242% MPKI: 11.6089 Average ROB Occupancy at Mispredict: 56.3452

Branch types
NOT_BRANCH: 40121075 80.2421%
BRANCH_DIRECT_JUMP: 644555 1.28911%
BRANCH_INDIRECT: 201946 0.403892%
BRANCH_CONDITIONAL: 7003556 14.0071%
BRANCH_DIRECT_CALL: 564821 1.12964%
BRANCH_INDIRECT_CALL: 445012 0.890024%
BRANCH_RETURN: 1018716 2.03743%
BRANCH_OTHER: 0 0%

