Initialize SIGNATURE TABLE
ST_SET: 1
ST_WAY: 256
ST_TAG_BIT: 16
ST_TAG_MASK: ffff

Initialize PATTERN TABLE
PT_SET: 512
PT_WAY: 4
SIG_DELTA_BIT: 7
C_SIG_BIT: 4
C_DELTA_BIT: 4

Initialize PREFETCH FILTER
FILTER_SET: 1024

*** ChampSim Multicore Out-of-Order Simulator ***

Warmup Instructions: 50000000
Simulation Instructions: 50000000
Number of CPUs: 1
LLC sets: 2048
LLC ways: 16
Off-chip DRAM Size: 4096 MB Channels: 1 Width: 64-bit Data Rate: 3200 MT/s

CPU 0 runs /home/sankara2004/240C/hw1/ChampSim_2/ChampSim/ipc1_public/client_001.champsimtrace.xz
LHT KB: 252.50
SCC KB: 1.56
Total KB: 254.06
CPU 0 L1D next line prefetcher
Heartbeat CPU 0 instructions: 10000003 cycles: 3410504 heartbeat IPC: 2.93212 cumulative IPC: 2.93212 (Simulation time: 0 hr 5 min 56 sec) 
Heartbeat CPU 0 instructions: 20000001 cycles: 7118954 heartbeat IPC: 2.69654 cumulative IPC: 2.8094 (Simulation time: 0 hr 11 min 42 sec) 
Heartbeat CPU 0 instructions: 30000001 cycles: 10481749 heartbeat IPC: 2.97372 cumulative IPC: 2.86212 (Simulation time: 0 hr 17 min 28 sec) 
Heartbeat CPU 0 instructions: 40000003 cycles: 14351363 heartbeat IPC: 2.58424 cumulative IPC: 2.78719 (Simulation time: 0 hr 23 min 13 sec) 
Heartbeat CPU 0 instructions: 50000003 cycles: 17648306 heartbeat IPC: 3.03311 cumulative IPC: 2.83313 (Simulation time: 0 hr 28 min 56 sec) 

Warmup complete CPU 0 instructions: 50000003 cycles: 17648306 (Simulation time: 0 hr 28 min 56 sec) 

Heartbeat CPU 0 instructions: 60000000 cycles: 26690900 heartbeat IPC: 1.10588 cumulative IPC: 1.10588 (Simulation time: 0 hr 36 min 31 sec) 
Heartbeat CPU 0 instructions: 70000000 cycles: 32998945 heartbeat IPC: 1.58528 cumulative IPC: 1.30288 (Simulation time: 0 hr 44 min 12 sec) 
Heartbeat CPU 0 instructions: 80000002 cycles: 42323219 heartbeat IPC: 1.07247 cumulative IPC: 1.21581 (Simulation time: 0 hr 52 min 1 sec) 
Heartbeat CPU 0 instructions: 90000000 cycles: 48484273 heartbeat IPC: 1.6231 cumulative IPC: 1.29719 (Simulation time: 0 hr 59 min 34 sec) 
Heartbeat CPU 0 instructions: 100000002 cycles: 57345927 heartbeat IPC: 1.12846 cumulative IPC: 1.25952 (Simulation time: 1 hr 6 min 59 sec) 
Finished CPU 0 instructions: 50000003 cycles: 39697622 cumulative IPC: 1.25952 (Simulation time: 1 hr 6 min 59 sec) 

ChampSim completed all CPUs

Region of Interest Statistics

CPU 0 cumulative IPC: 1.25952 instructions: 50000003 cycles: 39697622
L1D TOTAL     ACCESS:   21240264  HIT:   20403830  MISS:     836434
L1D LOAD      ACCESS:    8821682  HIT:    8426770  MISS:     394912
L1D RFO       ACCESS:    4040672  HIT:    3981600  MISS:      59072
L1D PREFETCH  ACCESS:    8377910  HIT:    7995460  MISS:     382450
L1D WRITEBACK ACCESS:          0  HIT:          0  MISS:          0
L1D PREFETCH  REQUESTED:    8867043  ISSUED:    8557383  USEFUL:     129466  USELESS:     252958
L1D AVERAGE MISS LATENCY: 47.7228 cycles
L1I TOTAL     ACCESS:   15395000  HIT:   14971224  MISS:     423776
L1I LOAD      ACCESS:    8919751  HIT:    8894529  MISS:      25222
L1I RFO       ACCESS:          0  HIT:          0  MISS:          0
L1I PREFETCH  ACCESS:    6475249  HIT:    6076695  MISS:     398554
L1I WRITEBACK ACCESS:          0  HIT:          0  MISS:          0
L1I PREFETCH  REQUESTED:    7206519  ISSUED:    7206518  USEFUL:     275903  USELESS:     122642
L1I AVERAGE MISS LATENCY: 20.8982 cycles
L2C TOTAL     ACCESS:    1943932  HIT:    1633595  MISS:     310337
L2C LOAD      ACCESS:     379798  HIT:     268000  MISS:     111798
L2C RFO       ACCESS:      58315  HIT:      21345  MISS:      36970
L2C PREFETCH  ACCESS:    1316229  HIT:    1154991  MISS:     161238
L2C WRITEBACK ACCESS:     189590  HIT:     189259  MISS:        331
L2C PREFETCH  REQUESTED:    1611844  ISSUED:    1604321  USEFUL:      13829  USELESS:     146244
L2C AVERAGE MISS LATENCY: 104.565 cycles
LLC TOTAL     ACCESS:     841424  HIT:     643244  MISS:     198180
LLC LOAD      ACCESS:     111499  HIT:      70687  MISS:      40812
LLC RFO       ACCESS:      36969  HIT:       8842  MISS:      28127
LLC PREFETCH  ACCESS:     585710  HIT:     457199  MISS:     128511
LLC WRITEBACK ACCESS:     107246  HIT:     106516  MISS:        730
LLC PREFETCH  REQUESTED:          0  ISSUED:          0  USEFUL:      28782  USELESS:     101295
LLC AVERAGE MISS LATENCY: 189.716 cycles
Major fault: 0 Minor fault: 3442
CPU 0 L1D next line prefetcher final stats

DRAM Statistics
 CHANNEL 0
 RQ ROW_BUFFER_HIT:      48708  ROW_BUFFER_MISS:     148735
 DBUS_CONGESTED:     119757
 WQ ROW_BUFFER_HIT:      15543  ROW_BUFFER_MISS:      65787  FULL:          0

 AVG_CONGESTED_CYCLE: 5

CPU 0 Branch Prediction Accuracy: 97.9037% MPKI: 3.63418 Average ROB Occupancy at Mispredict: 86.7936

Branch types
NOT_BRANCH: 41331383 82.6628%
BRANCH_DIRECT_JUMP: 455615 0.91123%
BRANCH_INDIRECT: 20390 0.04078%
BRANCH_CONDITIONAL: 6745374 13.4907%
BRANCH_DIRECT_CALL: 494532 0.989064%
BRANCH_INDIRECT_CALL: 228815 0.45763%
BRANCH_RETURN: 723560 1.44712%
BRANCH_OTHER: 0 0%

