Initialize SIGNATURE TABLE
ST_SET: 1
ST_WAY: 256
ST_TAG_BIT: 16
ST_TAG_MASK: ffff

Initialize PATTERN TABLE
PT_SET: 512
PT_WAY: 4
SIG_DELTA_BIT: 7
C_SIG_BIT: 4
C_DELTA_BIT: 4

Initialize PREFETCH FILTER
FILTER_SET: 1024

*** ChampSim Multicore Out-of-Order Simulator ***

Warmup Instructions: 50000000
Simulation Instructions: 50000000
Number of CPUs: 1
LLC sets: 2048
LLC ways: 16
Off-chip DRAM Size: 4096 MB Channels: 1 Width: 64-bit Data Rate: 3200 MT/s

CPU 0 runs /home/sankara2004/240C/hw1/ChampSim_2/ChampSim/ipc1_public/client_008.champsimtrace.xz
LHT KB: 126.25
SCC KB: 1.56
Total KB: 127.81
CPU 0 L1D next line prefetcher
Heartbeat CPU 0 instructions: 10000001 cycles: 3752598 heartbeat IPC: 2.66482 cumulative IPC: 2.66482 (Simulation time: 0 hr 5 min 55 sec) 
Heartbeat CPU 0 instructions: 20000001 cycles: 7527047 heartbeat IPC: 2.64939 cumulative IPC: 2.65708 (Simulation time: 0 hr 11 min 45 sec) 
Heartbeat CPU 0 instructions: 30000000 cycles: 11253221 heartbeat IPC: 2.68372 cumulative IPC: 2.6659 (Simulation time: 0 hr 17 min 38 sec) 
Heartbeat CPU 0 instructions: 40000002 cycles: 15045709 heartbeat IPC: 2.63679 cumulative IPC: 2.65857 (Simulation time: 0 hr 23 min 26 sec) 
Heartbeat CPU 0 instructions: 50000003 cycles: 18835818 heartbeat IPC: 2.63845 cumulative IPC: 2.65452 (Simulation time: 0 hr 29 min 12 sec) 

Warmup complete CPU 0 instructions: 50000003 cycles: 18835818 (Simulation time: 0 hr 29 min 12 sec) 

Heartbeat CPU 0 instructions: 60000000 cycles: 26934860 heartbeat IPC: 1.23471 cumulative IPC: 1.23471 (Simulation time: 0 hr 36 min 49 sec) 
Heartbeat CPU 0 instructions: 70000000 cycles: 34822527 heartbeat IPC: 1.2678 cumulative IPC: 1.25104 (Simulation time: 0 hr 44 min 36 sec) 
Heartbeat CPU 0 instructions: 80000000 cycles: 43828156 heartbeat IPC: 1.11042 cumulative IPC: 1.20037 (Simulation time: 0 hr 52 min 29 sec) 
Heartbeat CPU 0 instructions: 90000001 cycles: 51210573 heartbeat IPC: 1.35457 cumulative IPC: 1.23553 (Simulation time: 1 hr 0 min 6 sec) 
Heartbeat CPU 0 instructions: 100000001 cycles: 59254324 heartbeat IPC: 1.2432 cumulative IPC: 1.23706 (Simulation time: 1 hr 7 min 26 sec) 
Finished CPU 0 instructions: 50000002 cycles: 40418507 cumulative IPC: 1.23706 (Simulation time: 1 hr 7 min 27 sec) 

ChampSim completed all CPUs

Region of Interest Statistics

CPU 0 cumulative IPC: 1.23706 instructions: 50000002 cycles: 40418507
L1D TOTAL     ACCESS:   20480617  HIT:   18852027  MISS:    1628590
L1D LOAD      ACCESS:    8061886  HIT:    7262574  MISS:     799312
L1D RFO       ACCESS:    4814260  HIT:    4704685  MISS:     109575
L1D PREFETCH  ACCESS:    7604471  HIT:    6884768  MISS:     719703
L1D WRITEBACK ACCESS:          0  HIT:          0  MISS:          0
L1D PREFETCH  REQUESTED:    8131485  ISSUED:    7963396  USEFUL:     199830  USELESS:     519878
L1D AVERAGE MISS LATENCY: 32.9465 cycles
L1I TOTAL     ACCESS:   19669097  HIT:   18349166  MISS:    1319931
L1I LOAD      ACCESS:    9722800  HIT:    9582018  MISS:     140782
L1I RFO       ACCESS:          0  HIT:          0  MISS:          0
L1I PREFETCH  ACCESS:    9946297  HIT:    8767148  MISS:    1179149
L1I WRITEBACK ACCESS:          0  HIT:          0  MISS:          0
L1I PREFETCH  REQUESTED:   11475820  ISSUED:   11475820  USEFUL:     686159  USELESS:     493040
L1I AVERAGE MISS LATENCY: 16.0229 cycles
L2C TOTAL     ACCESS:    4076884  HIT:    3619515  MISS:     457369
L2C LOAD      ACCESS:     774125  HIT:     614442  MISS:     159683
L2C RFO       ACCESS:     104314  HIT:      18334  MISS:      85980
L2C PREFETCH  ACCESS:    3016464  HIT:    2805149  MISS:     211315
L2C WRITEBACK ACCESS:     181981  HIT:     181590  MISS:        391
L2C PREFETCH  REQUESTED:    2790508  ISSUED:    2784818  USEFUL:      17955  USELESS:     195484
L2C AVERAGE MISS LATENCY: 78.5614 cycles
LLC TOTAL     ACCESS:    1359527  HIT:    1175860  MISS:     183667
LLC LOAD      ACCESS:     159590  HIT:     139786  MISS:      19804
LLC RFO       ACCESS:      85976  HIT:      14998  MISS:      70978
LLC PREFETCH  ACCESS:     978261  HIT:     885724  MISS:      92537
LLC WRITEBACK ACCESS:     135700  HIT:     135352  MISS:        348
LLC PREFETCH  REQUESTED:          0  ISSUED:          0  USEFUL:      21688  USELESS:      79914
LLC AVERAGE MISS LATENCY: 169.893 cycles
Major fault: 0 Minor fault: 5325
CPU 0 L1D next line prefetcher final stats

DRAM Statistics
 CHANNEL 0
 RQ ROW_BUFFER_HIT:      53210  ROW_BUFFER_MISS:     130094
 DBUS_CONGESTED:     101265
 WQ ROW_BUFFER_HIT:      23996  ROW_BUFFER_MISS:      66906  FULL:          0

 AVG_CONGESTED_CYCLE: 6

CPU 0 Branch Prediction Accuracy: 98.6482% MPKI: 3.1551 Average ROB Occupancy at Mispredict: 97.6279

Branch types
NOT_BRANCH: 38329598 76.6592%
BRANCH_DIRECT_JUMP: 510116 1.02023%
BRANCH_INDIRECT: 225730 0.45146%
BRANCH_CONDITIONAL: 8366762 16.7335%
BRANCH_DIRECT_CALL: 600748 1.2015%
BRANCH_INDIRECT_CALL: 682990 1.36598%
BRANCH_RETURN: 1283974 2.56795%
BRANCH_OTHER: 0 0%

