Initialize SIGNATURE TABLE
ST_SET: 1
ST_WAY: 256
ST_TAG_BIT: 16
ST_TAG_MASK: ffff

Initialize PATTERN TABLE
PT_SET: 512
PT_WAY: 4
SIG_DELTA_BIT: 7
C_SIG_BIT: 4
C_DELTA_BIT: 4

Initialize PREFETCH FILTER
FILTER_SET: 1024

*** ChampSim Multicore Out-of-Order Simulator ***

Warmup Instructions: 50000000
Simulation Instructions: 50000000
Number of CPUs: 1
LLC sets: 2048
LLC ways: 16
Off-chip DRAM Size: 4096 MB Channels: 1 Width: 64-bit Data Rate: 3200 MT/s

CPU 0 runs /home/sankara2004/240C/hw1/ChampSim_2/ChampSim/ipc1_public/client_003.champsimtrace.xz
CPU 0 EPI prefetcher
CPU 0 L1D next line prefetcher
Heartbeat CPU 0 instructions: 10000000 cycles: 3478839 heartbeat IPC: 2.87452 cumulative IPC: 2.87452 (Simulation time: 0 hr 6 min 24 sec) 
Heartbeat CPU 0 instructions: 20000002 cycles: 6934043 heartbeat IPC: 2.89419 cumulative IPC: 2.88432 (Simulation time: 0 hr 12 min 57 sec) 
Heartbeat CPU 0 instructions: 30000003 cycles: 10495384 heartbeat IPC: 2.80793 cumulative IPC: 2.8584 (Simulation time: 0 hr 19 min 37 sec) 
Heartbeat CPU 0 instructions: 40000001 cycles: 14112120 heartbeat IPC: 2.76492 cumulative IPC: 2.83444 (Simulation time: 0 hr 26 min 11 sec) 
Heartbeat CPU 0 instructions: 50000003 cycles: 17657679 heartbeat IPC: 2.82043 cumulative IPC: 2.83163 (Simulation time: 0 hr 32 min 44 sec) 

Warmup complete CPU 0 instructions: 50000003 cycles: 17657679 (Simulation time: 0 hr 32 min 44 sec) 

Heartbeat CPU 0 instructions: 60000002 cycles: 23857351 heartbeat IPC: 1.61299 cumulative IPC: 1.61299 (Simulation time: 0 hr 41 min 3 sec) 
Heartbeat CPU 0 instructions: 70000001 cycles: 29878885 heartbeat IPC: 1.66071 cumulative IPC: 1.6365 (Simulation time: 0 hr 49 min 32 sec) 
Heartbeat CPU 0 instructions: 80000001 cycles: 36629102 heartbeat IPC: 1.48143 cumulative IPC: 1.58133 (Simulation time: 0 hr 58 min 31 sec) 
Heartbeat CPU 0 instructions: 90000000 cycles: 45586609 heartbeat IPC: 1.11638 cumulative IPC: 1.43221 (Simulation time: 1 hr 6 min 59 sec) 
Heartbeat CPU 0 instructions: 100000003 cycles: 56430298 heartbeat IPC: 0.922196 cumulative IPC: 1.28957 (Simulation time: 1 hr 15 min 20 sec) 
Finished CPU 0 instructions: 50000000 cycles: 38772619 cumulative IPC: 1.28957 (Simulation time: 1 hr 15 min 20 sec) 

ChampSim completed all CPUs

Region of Interest Statistics

CPU 0 cumulative IPC: 1.28957 instructions: 50000000 cycles: 38772619
L1D TOTAL     ACCESS:   17600159  HIT:   17104232  MISS:     495927
L1D LOAD      ACCESS:    6022704  HIT:    5895994  MISS:     126710
L1D RFO       ACCESS:    5944393  HIT:    5709938  MISS:     234455
L1D PREFETCH  ACCESS:    5633062  HIT:    5498300  MISS:     134762
L1D WRITEBACK ACCESS:          0  HIT:          0  MISS:          0
L1D PREFETCH  REQUESTED:    6064440  ISSUED:    5923846  USEFUL:      66916  USELESS:      67894
L1D AVERAGE MISS LATENCY: 123.8 cycles
L1I TOTAL     ACCESS:   33497444  HIT:   32356021  MISS:    1141423
L1I LOAD      ACCESS:    9454437  HIT:    9397913  MISS:      56524
L1I RFO       ACCESS:          0  HIT:          0  MISS:          0
L1I PREFETCH  ACCESS:   24043007  HIT:   22958108  MISS:    1084899
L1I WRITEBACK ACCESS:          0  HIT:          0  MISS:          0
L1I PREFETCH  REQUESTED:   32265609  ISSUED:   32265609  USEFUL:     573383  USELESS:     511586
L1I AVERAGE MISS LATENCY: 19.5375 cycles
L2C TOTAL     ACCESS:    2443401  HIT:    2033064  MISS:     410337
L2C LOAD      ACCESS:     134909  HIT:      94265  MISS:      40644
L2C RFO       ACCESS:     232379  HIT:      24189  MISS:     208190
L2C PREFETCH  ACCESS:    1806823  HIT:    1646759  MISS:     160064
L2C WRITEBACK ACCESS:     269290  HIT:     267851  MISS:       1439
L2C PREFETCH  REQUESTED:    1745500  ISSUED:    1744462  USEFUL:      11964  USELESS:     148187
L2C AVERAGE MISS LATENCY: 165.964 cycles
LLC TOTAL     ACCESS:    1031546  HIT:     742356  MISS:     289190
LLC LOAD      ACCESS:      40557  HIT:      28564  MISS:      11993
LLC RFO       ACCESS:     208183  HIT:      35354  MISS:     172829
LLC PREFETCH  ACCESS:     556735  HIT:     452720  MISS:     104015
LLC WRITEBACK ACCESS:     226071  HIT:     225718  MISS:        353
LLC PREFETCH  REQUESTED:          0  ISSUED:          0  USEFUL:      10961  USELESS:      93459
LLC AVERAGE MISS LATENCY: 235.687 cycles
Major fault: 0 Minor fault: 5046
CPU 0 L1I EPI prefetcher final stats
CPU 0 L1D next line prefetcher final stats

DRAM Statistics
 CHANNEL 0
 RQ ROW_BUFFER_HIT:     101398  ROW_BUFFER_MISS:     187433
 DBUS_CONGESTED:     259024
 WQ ROW_BUFFER_HIT:      59068  ROW_BUFFER_MISS:     120406  FULL:          0

 AVG_CONGESTED_CYCLE: 6

CPU 0 Branch Prediction Accuracy: 98.6631% MPKI: 2.66884 Average ROB Occupancy at Mispredict: 81.0748

Branch types
NOT_BRANCH: 40018777 80.0376%
BRANCH_DIRECT_JUMP: 370861 0.741722%
BRANCH_INDIRECT: 83253 0.166506%
BRANCH_CONDITIONAL: 7877436 15.7549%
BRANCH_DIRECT_CALL: 722315 1.44463%
BRANCH_INDIRECT_CALL: 101901 0.203802%
BRANCH_RETURN: 825355 1.65071%
BRANCH_OTHER: 0 0%

