Initialize SIGNATURE TABLE
ST_SET: 1
ST_WAY: 256
ST_TAG_BIT: 16
ST_TAG_MASK: ffff

Initialize PATTERN TABLE
PT_SET: 512
PT_WAY: 4
SIG_DELTA_BIT: 7
C_SIG_BIT: 4
C_DELTA_BIT: 4

Initialize PREFETCH FILTER
FILTER_SET: 1024

*** ChampSim Multicore Out-of-Order Simulator ***

Warmup Instructions: 50000000
Simulation Instructions: 50000000
Number of CPUs: 1
LLC sets: 2048
LLC ways: 16
Off-chip DRAM Size: 4096 MB Channels: 1 Width: 64-bit Data Rate: 3200 MT/s

CPU 0 runs /home/sankara2004/240C/hw1/ChampSim_2/ChampSim/ipc1_public/client_002.champsimtrace.xz
CPU 0 EPI prefetcher
CPU 0 L1D next line prefetcher
Heartbeat CPU 0 instructions: 10000000 cycles: 3405187 heartbeat IPC: 2.9367 cumulative IPC: 2.9367 (Simulation time: 0 hr 0 min 41 sec) 
Heartbeat CPU 0 instructions: 20000002 cycles: 6861129 heartbeat IPC: 2.89357 cumulative IPC: 2.91497 (Simulation time: 0 hr 1 min 22 sec) 
Heartbeat CPU 0 instructions: 30000001 cycles: 10294093 heartbeat IPC: 2.91293 cumulative IPC: 2.91429 (Simulation time: 0 hr 2 min 1 sec) 
Heartbeat CPU 0 instructions: 40000002 cycles: 13727049 heartbeat IPC: 2.91294 cumulative IPC: 2.91395 (Simulation time: 0 hr 2 min 42 sec) 
Heartbeat CPU 0 instructions: 50000002 cycles: 17167973 heartbeat IPC: 2.9062 cumulative IPC: 2.9124 (Simulation time: 0 hr 3 min 20 sec) 

Warmup complete CPU 0 instructions: 50000002 cycles: 17167973 (Simulation time: 0 hr 3 min 20 sec) 

Heartbeat CPU 0 instructions: 60000002 cycles: 23104613 heartbeat IPC: 1.68445 cumulative IPC: 1.68445 (Simulation time: 0 hr 4 min 5 sec) 
Heartbeat CPU 0 instructions: 70000001 cycles: 29084061 heartbeat IPC: 1.67239 cumulative IPC: 1.6784 (Simulation time: 0 hr 4 min 51 sec) 
Heartbeat CPU 0 instructions: 80000002 cycles: 34950500 heartbeat IPC: 1.70461 cumulative IPC: 1.68705 (Simulation time: 0 hr 5 min 37 sec) 
Heartbeat CPU 0 instructions: 90000000 cycles: 41366780 heartbeat IPC: 1.55854 cumulative IPC: 1.65297 (Simulation time: 0 hr 6 min 18 sec) 
Heartbeat CPU 0 instructions: 100000003 cycles: 47281378 heartbeat IPC: 1.69073 cumulative IPC: 1.66039 (Simulation time: 0 hr 6 min 59 sec) 
Finished CPU 0 instructions: 50000001 cycles: 30113405 cumulative IPC: 1.66039 (Simulation time: 0 hr 6 min 59 sec) 

ChampSim completed all CPUs

Region of Interest Statistics

CPU 0 cumulative IPC: 1.66039 instructions: 50000001 cycles: 30113405
L1D TOTAL     ACCESS:   19083798  HIT:   18744555  MISS:     339243
L1D LOAD      ACCESS:    6463223  HIT:    6346163  MISS:     117060
L1D RFO       ACCESS:    6417770  HIT:    6327961  MISS:      89809
L1D PREFETCH  ACCESS:    6202805  HIT:    6070431  MISS:     132374
L1D WRITEBACK ACCESS:          0  HIT:          0  MISS:          0
L1D PREFETCH  REQUESTED:    6473390  ISSUED:    6272201  USEFUL:      53592  USELESS:      78924
L1D AVERAGE MISS LATENCY: 49.4289 cycles
L1I TOTAL     ACCESS:   39241409  HIT:   38163035  MISS:    1078374
L1I LOAD      ACCESS:    9535996  HIT:    9485433  MISS:      50563
L1I RFO       ACCESS:          0  HIT:          0  MISS:          0
L1I PREFETCH  ACCESS:   29705413  HIT:   28677602  MISS:    1027811
L1I WRITEBACK ACCESS:          0  HIT:          0  MISS:          0
L1I PREFETCH  REQUESTED:   41938966  ISSUED:   41938966  USEFUL:     655833  USELESS:     371979
L1I AVERAGE MISS LATENCY: 18.0408 cycles
L2C TOTAL     ACCESS:    2025601  HIT:    1773917  MISS:     251684
L2C LOAD      ACCESS:     143740  HIT:     102014  MISS:      41726
L2C RFO       ACCESS:      88811  HIT:      22182  MISS:      66629
L2C PREFETCH  ACCESS:    1667546  HIT:    1524742  MISS:     142804
L2C WRITEBACK ACCESS:     125504  HIT:     124979  MISS:        525
L2C PREFETCH  REQUESTED:    1371236  ISSUED:    1370050  USEFUL:      12643  USELESS:     128884
L2C AVERAGE MISS LATENCY: 63.8848 cycles
LLC TOTAL     ACCESS:     624745  HIT:     559869  MISS:      64876
LLC LOAD      ACCESS:      41723  HIT:      35921  MISS:       5802
LLC RFO       ACCESS:      66628  HIT:      37118  MISS:      29510
LLC PREFETCH  ACCESS:     431238  HIT:     401895  MISS:      29343
LLC WRITEBACK ACCESS:      85156  HIT:      84935  MISS:        221
LLC PREFETCH  REQUESTED:          0  ISSUED:          0  USEFUL:       6079  USELESS:      21647
LLC AVERAGE MISS LATENCY: 179.451 cycles
Major fault: 0 Minor fault: 3099
CPU 0 L1I EPI prefetcher final stats
CPU 0 L1D next line prefetcher final stats

DRAM Statistics
 CHANNEL 0
 RQ ROW_BUFFER_HIT:      22339  ROW_BUFFER_MISS:      42316
 DBUS_CONGESTED:      44546
 WQ ROW_BUFFER_HIT:       8919  ROW_BUFFER_MISS:      28577  FULL:          0

 AVG_CONGESTED_CYCLE: 6

CPU 0 Branch Prediction Accuracy: 99.2117% MPKI: 1.49752 Average ROB Occupancy at Mispredict: 118.591

Branch types
NOT_BRANCH: 40501616 81.0032%
BRANCH_DIRECT_JUMP: 517397 1.03479%
BRANCH_INDIRECT: 112348 0.224696%
BRANCH_CONDITIONAL: 6698737 13.3975%
BRANCH_DIRECT_CALL: 960974 1.92195%
BRANCH_INDIRECT_CALL: 123707 0.247414%
BRANCH_RETURN: 1084929 2.16986%
BRANCH_OTHER: 0 0%

