Initialize SIGNATURE TABLE
ST_SET: 1
ST_WAY: 256
ST_TAG_BIT: 16
ST_TAG_MASK: ffff

Initialize PATTERN TABLE
PT_SET: 512
PT_WAY: 4
SIG_DELTA_BIT: 7
C_SIG_BIT: 4
C_DELTA_BIT: 4

Initialize PREFETCH FILTER
FILTER_SET: 1024

*** ChampSim Multicore Out-of-Order Simulator ***

Warmup Instructions: 50000000
Simulation Instructions: 50000000
Number of CPUs: 1
LLC sets: 2048
LLC ways: 16
Off-chip DRAM Size: 4096 MB Channels: 1 Width: 64-bit Data Rate: 3200 MT/s

CPU 0 runs /home/sankara2004/240C/hw1/ChampSim_2/ChampSim/ipc1_public/client_005.champsimtrace.xz
LHT KB: 126.25
SCC KB: 1.56
Total KB: 127.81
CPU 0 L1D next line prefetcher
Heartbeat CPU 0 instructions: 10000001 cycles: 3292945 heartbeat IPC: 3.0368 cumulative IPC: 3.0368 (Simulation time: 0 hr 5 min 55 sec) 
Heartbeat CPU 0 instructions: 20000002 cycles: 6699880 heartbeat IPC: 2.93519 cumulative IPC: 2.98513 (Simulation time: 0 hr 11 min 45 sec) 
Heartbeat CPU 0 instructions: 30000001 cycles: 10393186 heartbeat IPC: 2.7076 cumulative IPC: 2.88651 (Simulation time: 0 hr 17 min 36 sec) 
Heartbeat CPU 0 instructions: 40000000 cycles: 14071028 heartbeat IPC: 2.71899 cumulative IPC: 2.84272 (Simulation time: 0 hr 23 min 25 sec) 
Heartbeat CPU 0 instructions: 50000001 cycles: 17344945 heartbeat IPC: 3.05445 cumulative IPC: 2.88268 (Simulation time: 0 hr 29 min 10 sec) 

Warmup complete CPU 0 instructions: 50000001 cycles: 17344945 (Simulation time: 0 hr 29 min 10 sec) 

Heartbeat CPU 0 instructions: 60000002 cycles: 24891278 heartbeat IPC: 1.32515 cumulative IPC: 1.32515 (Simulation time: 0 hr 36 min 49 sec) 
Heartbeat CPU 0 instructions: 70000003 cycles: 32134526 heartbeat IPC: 1.3806 cumulative IPC: 1.3523 (Simulation time: 0 hr 44 min 38 sec) 
Heartbeat CPU 0 instructions: 80000001 cycles: 38988886 heartbeat IPC: 1.45893 cumulative IPC: 1.38607 (Simulation time: 0 hr 52 min 30 sec) 
Heartbeat CPU 0 instructions: 90000002 cycles: 48507471 heartbeat IPC: 1.05058 cumulative IPC: 1.28359 (Simulation time: 1 hr 0 min 9 sec) 
Heartbeat CPU 0 instructions: 100000002 cycles: 56028306 heartbeat IPC: 1.32964 cumulative IPC: 1.29255 (Simulation time: 1 hr 7 min 38 sec) 
Finished CPU 0 instructions: 50000001 cycles: 38683361 cumulative IPC: 1.29255 (Simulation time: 1 hr 7 min 38 sec) 

ChampSim completed all CPUs

Region of Interest Statistics

CPU 0 cumulative IPC: 1.29255 instructions: 50000001 cycles: 38683361
L1D TOTAL     ACCESS:   19621546  HIT:   19085812  MISS:     535734
L1D LOAD      ACCESS:    6642232  HIT:    6470216  MISS:     172016
L1D RFO       ACCESS:    6789240  HIT:    6604576  MISS:     184664
L1D PREFETCH  ACCESS:    6190074  HIT:    6011020  MISS:     179054
L1D WRITEBACK ACCESS:          0  HIT:          0  MISS:          0
L1D PREFETCH  REQUESTED:    6666260  ISSUED:    6297568  USEFUL:      59008  USELESS:     119934
L1D AVERAGE MISS LATENCY: 95.552 cycles
L1I TOTAL     ACCESS:   22897994  HIT:   21193029  MISS:    1704965
L1I LOAD      ACCESS:    9319833  HIT:    9147564  MISS:     172269
L1I RFO       ACCESS:          0  HIT:          0  MISS:          0
L1I PREFETCH  ACCESS:   13578161  HIT:   12045465  MISS:    1532696
L1I WRITEBACK ACCESS:          0  HIT:          0  MISS:          0
L1I PREFETCH  REQUESTED:   15668498  ISSUED:   15668388  USEFUL:     735878  USELESS:     796758
L1I AVERAGE MISS LATENCY: 18.1172 cycles
L2C TOTAL     ACCESS:    3118838  HIT:    2706330  MISS:     412508
L2C LOAD      ACCESS:     201704  HIT:     123196  MISS:      78508
L2C RFO       ACCESS:     180943  HIT:      31242  MISS:     149701
L2C PREFETCH  ACCESS:    2483147  HIT:    2300341  MISS:     182806
L2C WRITEBACK ACCESS:     253044  HIT:     251551  MISS:       1493
L2C PREFETCH  REQUESTED:    1474532  ISSUED:    1474099  USEFUL:      13335  USELESS:     166931
L2C AVERAGE MISS LATENCY: 128.408 cycles
LLC TOTAL     ACCESS:     946109  HIT:     645068  MISS:     301041
LLC LOAD      ACCESS:      78498  HIT:      38642  MISS:      39856
LLC RFO       ACCESS:     149701  HIT:      15903  MISS:     133798
LLC PREFETCH  ACCESS:     517411  HIT:     390869  MISS:     126542
LLC WRITEBACK ACCESS:     200499  HIT:     199654  MISS:        845
LLC PREFETCH  REQUESTED:          0  ISSUED:          0  USEFUL:      20434  USELESS:     100191
LLC AVERAGE MISS LATENCY: 174.119 cycles
Major fault: 0 Minor fault: 6133
CPU 0 L1D next line prefetcher final stats

DRAM Statistics
 CHANNEL 0
 RQ ROW_BUFFER_HIT:      97876  ROW_BUFFER_MISS:     202314
 DBUS_CONGESTED:     238827
 WQ ROW_BUFFER_HIT:      52554  ROW_BUFFER_MISS:     130517  FULL:          0

 AVG_CONGESTED_CYCLE: 6

CPU 0 Branch Prediction Accuracy: 97.8666% MPKI: 3.9013 Average ROB Occupancy at Mispredict: 90.0957

Branch types
NOT_BRANCH: 40856330 81.7127%
BRANCH_DIRECT_JUMP: 484667 0.969334%
BRANCH_INDIRECT: 85086 0.170172%
BRANCH_CONDITIONAL: 6230887 12.4618%
BRANCH_DIRECT_CALL: 1028917 2.05783%
BRANCH_INDIRECT_CALL: 141825 0.28365%
BRANCH_RETURN: 1171986 2.34397%
BRANCH_OTHER: 0 0%

