Initialize SIGNATURE TABLE
ST_SET: 1
ST_WAY: 256
ST_TAG_BIT: 16
ST_TAG_MASK: ffff

Initialize PATTERN TABLE
PT_SET: 512
PT_WAY: 4
SIG_DELTA_BIT: 7
C_SIG_BIT: 4
C_DELTA_BIT: 4

Initialize PREFETCH FILTER
FILTER_SET: 1024

*** ChampSim Multicore Out-of-Order Simulator ***

Warmup Instructions: 50000000
Simulation Instructions: 50000000
Number of CPUs: 1
LLC sets: 2048
LLC ways: 16
Off-chip DRAM Size: 4096 MB Channels: 1 Width: 64-bit Data Rate: 3200 MT/s

CPU 0 runs /home/sankara2004/240C/hw1/ChampSim_2/ChampSim/ipc1_public/client_007.champsimtrace.xz
LHT KB: 252.50
SCC KB: 1.56
Total KB: 254.06
CPU 0 L1D next line prefetcher
Heartbeat CPU 0 instructions: 10000001 cycles: 3642606 heartbeat IPC: 2.74529 cumulative IPC: 2.74529 (Simulation time: 0 hr 5 min 58 sec) 
Heartbeat CPU 0 instructions: 20000003 cycles: 7035138 heartbeat IPC: 2.94765 cumulative IPC: 2.84287 (Simulation time: 0 hr 11 min 43 sec) 
Heartbeat CPU 0 instructions: 30000000 cycles: 10907200 heartbeat IPC: 2.5826 cumulative IPC: 2.75048 (Simulation time: 0 hr 17 min 29 sec) 
Heartbeat CPU 0 instructions: 40000003 cycles: 15067308 heartbeat IPC: 2.40378 cumulative IPC: 2.65475 (Simulation time: 0 hr 23 min 15 sec) 
Heartbeat CPU 0 instructions: 50000002 cycles: 18472577 heartbeat IPC: 2.93663 cumulative IPC: 2.70672 (Simulation time: 0 hr 28 min 58 sec) 

Warmup complete CPU 0 instructions: 50000002 cycles: 18472577 (Simulation time: 0 hr 28 min 58 sec) 

Heartbeat CPU 0 instructions: 60000003 cycles: 25355680 heartbeat IPC: 1.45283 cumulative IPC: 1.45283 (Simulation time: 0 hr 36 min 32 sec) 
Heartbeat CPU 0 instructions: 70000003 cycles: 34210581 heartbeat IPC: 1.12932 cumulative IPC: 1.27081 (Simulation time: 0 hr 44 min 14 sec) 
Heartbeat CPU 0 instructions: 80000002 cycles: 39506825 heartbeat IPC: 1.88813 cumulative IPC: 1.42625 (Simulation time: 0 hr 52 min 2 sec) 
Heartbeat CPU 0 instructions: 90000002 cycles: 47119315 heartbeat IPC: 1.31363 cumulative IPC: 1.39632 (Simulation time: 0 hr 59 min 37 sec) 
Heartbeat CPU 0 instructions: 100000002 cycles: 56081916 heartbeat IPC: 1.11575 cumulative IPC: 1.32946 (Simulation time: 1 hr 7 min 1 sec) 
Finished CPU 0 instructions: 50000000 cycles: 37609339 cumulative IPC: 1.32946 (Simulation time: 1 hr 7 min 1 sec) 

ChampSim completed all CPUs

Region of Interest Statistics

CPU 0 cumulative IPC: 1.32946 instructions: 50000000 cycles: 37609339
L1D TOTAL     ACCESS:   21201150  HIT:   20032189  MISS:    1168961
L1D LOAD      ACCESS:    8371607  HIT:    7832263  MISS:     539344
L1D RFO       ACCESS:    4868659  HIT:    4777627  MISS:      91032
L1D PREFETCH  ACCESS:    7960884  HIT:    7422299  MISS:     538585
L1D WRITEBACK ACCESS:          0  HIT:          0  MISS:          0
L1D PREFETCH  REQUESTED:    8424149  ISSUED:    8180896  USEFUL:     158124  USELESS:     380476
L1D AVERAGE MISS LATENCY: 34.8171 cycles
L1I TOTAL     ACCESS:   16663926  HIT:   15344008  MISS:    1319918
L1I LOAD      ACCESS:    9117454  HIT:    9060537  MISS:      56917
L1I RFO       ACCESS:          0  HIT:          0  MISS:          0
L1I PREFETCH  ACCESS:    7546472  HIT:    6283471  MISS:    1263001
L1I WRITEBACK ACCESS:          0  HIT:          0  MISS:          0
L1I PREFETCH  REQUESTED:    8265701  ISSUED:    8265696  USEFUL:     836795  USELESS:     426160
L1I AVERAGE MISS LATENCY: 15.973 cycles
L2C TOTAL     ACCESS:    3598392  HIT:    3388421  MISS:     209971
L2C LOAD      ACCESS:     520104  HIT:     452548  MISS:      67556
L2C RFO       ACCESS:      89496  HIT:      47956  MISS:      41540
L2C PREFETCH  ACCESS:    2661117  HIT:    2560340  MISS:     100777
L2C WRITEBACK ACCESS:     327675  HIT:     327577  MISS:         98
L2C PREFETCH  REQUESTED:    2679822  ISSUED:    2671078  USEFUL:       8890  USELESS:      92099
L2C AVERAGE MISS LATENCY: 128.087 cycles
LLC TOTAL     ACCESS:    1024528  HIT:     853092  MISS:     171436
LLC LOAD      ACCESS:      67466  HIT:      33231  MISS:      34235
LLC RFO       ACCESS:      41540  HIT:       7058  MISS:      34482
LLC PREFETCH  ACCESS:     840833  HIT:     738390  MISS:     102443
LLC WRITEBACK ACCESS:      74689  HIT:      74413  MISS:        276
LLC PREFETCH  REQUESTED:          0  ISSUED:          0  USEFUL:      17676  USELESS:      86275
LLC AVERAGE MISS LATENCY: 187.041 cycles
Major fault: 0 Minor fault: 4425
CPU 0 L1D next line prefetcher final stats

DRAM Statistics
 CHANNEL 0
 RQ ROW_BUFFER_HIT:      36013  ROW_BUFFER_MISS:     135138
 DBUS_CONGESTED:      95196
 WQ ROW_BUFFER_HIT:      12675  ROW_BUFFER_MISS:      45187  FULL:          0

 AVG_CONGESTED_CYCLE: 5

CPU 0 Branch Prediction Accuracy: 98.8607% MPKI: 1.8623 Average ROB Occupancy at Mispredict: 113.873

Branch types
NOT_BRANCH: 41826773 83.6535%
BRANCH_DIRECT_JUMP: 735330 1.47066%
BRANCH_INDIRECT: 269194 0.538388%
BRANCH_CONDITIONAL: 5957947 11.9159%
BRANCH_DIRECT_CALL: 368758 0.737516%
BRANCH_INDIRECT_CALL: 226975 0.45395%
BRANCH_RETURN: 614696 1.22939%
BRANCH_OTHER: 0 0%

