Initialize SIGNATURE TABLE
ST_SET: 1
ST_WAY: 256
ST_TAG_BIT: 16
ST_TAG_MASK: ffff

Initialize PATTERN TABLE
PT_SET: 512
PT_WAY: 4
SIG_DELTA_BIT: 7
C_SIG_BIT: 4
C_DELTA_BIT: 4

Initialize PREFETCH FILTER
FILTER_SET: 1024

*** ChampSim Multicore Out-of-Order Simulator ***

Warmup Instructions: 50000000
Simulation Instructions: 50000000
Number of CPUs: 1
LLC sets: 2048
LLC ways: 16
Off-chip DRAM Size: 4096 MB Channels: 1 Width: 64-bit Data Rate: 3200 MT/s

CPU 0 runs /home/sankara2004/240C/hw1/ChampSim_2/ChampSim/ipc1_public/client_002.champsimtrace.xz
CPU 0 EPI prefetcher
CPU 0 L1D next line prefetcher
Heartbeat CPU 0 instructions: 10000000 cycles: 3405083 heartbeat IPC: 2.93679 cumulative IPC: 2.93679 (Simulation time: 0 hr 6 min 22 sec) 
Heartbeat CPU 0 instructions: 20000002 cycles: 6861079 heartbeat IPC: 2.89352 cumulative IPC: 2.91499 (Simulation time: 0 hr 12 min 53 sec) 
Heartbeat CPU 0 instructions: 30000001 cycles: 10294224 heartbeat IPC: 2.91278 cumulative IPC: 2.91426 (Simulation time: 0 hr 19 min 31 sec) 
Heartbeat CPU 0 instructions: 40000002 cycles: 13727212 heartbeat IPC: 2.91291 cumulative IPC: 2.91392 (Simulation time: 0 hr 26 min 4 sec) 
Heartbeat CPU 0 instructions: 50000002 cycles: 17168186 heartbeat IPC: 2.90615 cumulative IPC: 2.91236 (Simulation time: 0 hr 32 min 35 sec) 

Warmup complete CPU 0 instructions: 50000002 cycles: 17168186 (Simulation time: 0 hr 32 min 36 sec) 

Heartbeat CPU 0 instructions: 60000002 cycles: 23109994 heartbeat IPC: 1.68299 cumulative IPC: 1.68299 (Simulation time: 0 hr 40 min 51 sec) 
Heartbeat CPU 0 instructions: 70000001 cycles: 29104586 heartbeat IPC: 1.66817 cumulative IPC: 1.67555 (Simulation time: 0 hr 49 min 18 sec) 
Heartbeat CPU 0 instructions: 80000003 cycles: 34970624 heartbeat IPC: 1.70473 cumulative IPC: 1.68516 (Simulation time: 0 hr 58 min 12 sec) 
Heartbeat CPU 0 instructions: 90000000 cycles: 41374869 heartbeat IPC: 1.56146 cumulative IPC: 1.65244 (Simulation time: 1 hr 6 min 41 sec) 
Heartbeat CPU 0 instructions: 100000003 cycles: 47289806 heartbeat IPC: 1.69064 cumulative IPC: 1.65994 (Simulation time: 1 hr 15 min 5 sec) 
Finished CPU 0 instructions: 50000001 cycles: 30121620 cumulative IPC: 1.65994 (Simulation time: 1 hr 15 min 5 sec) 

ChampSim completed all CPUs

Region of Interest Statistics

CPU 0 cumulative IPC: 1.65994 instructions: 50000001 cycles: 30121620
L1D TOTAL     ACCESS:   19094183  HIT:   18754964  MISS:     339219
L1D LOAD      ACCESS:    6468514  HIT:    6351517  MISS:     116997
L1D RFO       ACCESS:    6417642  HIT:    6327835  MISS:      89807
L1D PREFETCH  ACCESS:    6208027  HIT:    6075612  MISS:     132415
L1D WRITEBACK ACCESS:          0  HIT:          0  MISS:          0
L1D PREFETCH  REQUESTED:    6478624  ISSUED:    6277339  USEFUL:      53644  USELESS:      78913
L1D AVERAGE MISS LATENCY: 49.1401 cycles
L1I TOTAL     ACCESS:   40760585  HIT:   39535405  MISS:    1225180
L1I LOAD      ACCESS:    9542407  HIT:    9487852  MISS:      54555
L1I RFO       ACCESS:          0  HIT:          0  MISS:          0
L1I PREFETCH  ACCESS:   31218178  HIT:   30047553  MISS:    1170625
L1I WRITEBACK ACCESS:          0  HIT:          0  MISS:          0
L1I PREFETCH  REQUESTED:   42492969  ISSUED:   42492969  USEFUL:     685805  USELESS:     484806
L1I AVERAGE MISS LATENCY: 17.6477 cycles
L2C TOTAL     ACCESS:    2249543  HIT:    1996288  MISS:     253255
L2C LOAD      ACCESS:     147895  HIT:     106019  MISS:      41876
L2C RFO       ACCESS:      88811  HIT:      22010  MISS:      66801
L2C PREFETCH  ACCESS:    1887329  HIT:    1743407  MISS:     143922
L2C WRITEBACK ACCESS:     125508  HIT:     124852  MISS:        656
L2C PREFETCH  REQUESTED:    1522829  ISSUED:    1521292  USEFUL:      13765  USELESS:     128853
L2C AVERAGE MISS LATENCY: 63.1136 cycles
LLC TOTAL     ACCESS:     640331  HIT:     575392  MISS:      64939
LLC LOAD      ACCESS:      41875  HIT:      36156  MISS:       5719
LLC RFO       ACCESS:      66798  HIT:      37280  MISS:      29518
LLC PREFETCH  ACCESS:     446222  HIT:     416737  MISS:      29485
LLC WRITEBACK ACCESS:      85436  HIT:      85219  MISS:        217
LLC PREFETCH  REQUESTED:          0  ISSUED:          0  USEFUL:       6036  USELESS:      21626
LLC AVERAGE MISS LATENCY: 177.825 cycles
Major fault: 0 Minor fault: 3097
CPU 0 L1I EPI prefetcher final stats
CPU 0 L1D next line prefetcher final stats

DRAM Statistics
 CHANNEL 0
 RQ ROW_BUFFER_HIT:      22354  ROW_BUFFER_MISS:      42367
 DBUS_CONGESTED:      44587
 WQ ROW_BUFFER_HIT:       9062  ROW_BUFFER_MISS:      28346  FULL:          0

 AVG_CONGESTED_CYCLE: 6

CPU 0 Branch Prediction Accuracy: 99.2117% MPKI: 1.49752 Average ROB Occupancy at Mispredict: 117.89

Branch types
NOT_BRANCH: 40501616 81.0032%
BRANCH_DIRECT_JUMP: 517397 1.03479%
BRANCH_INDIRECT: 112348 0.224696%
BRANCH_CONDITIONAL: 6698737 13.3975%
BRANCH_DIRECT_CALL: 960974 1.92195%
BRANCH_INDIRECT_CALL: 123707 0.247414%
BRANCH_RETURN: 1084929 2.16986%
BRANCH_OTHER: 0 0%

