Initialize SIGNATURE TABLE
ST_SET: 1
ST_WAY: 256
ST_TAG_BIT: 16
ST_TAG_MASK: ffff

Initialize PATTERN TABLE
PT_SET: 512
PT_WAY: 4
SIG_DELTA_BIT: 7
C_SIG_BIT: 4
C_DELTA_BIT: 4

Initialize PREFETCH FILTER
FILTER_SET: 1024

*** ChampSim Multicore Out-of-Order Simulator ***

Warmup Instructions: 50000000
Simulation Instructions: 50000000
Number of CPUs: 1
LLC sets: 2048
LLC ways: 16
Off-chip DRAM Size: 4096 MB Channels: 1 Width: 64-bit Data Rate: 3200 MT/s

CPU 0 runs /home/sankara2004/240C/hw1/ChampSim_2/ChampSim/ipc1_public/client_002.champsimtrace.xz
LHT KB: 126.25
SCC KB: 1.56
Total KB: 127.81
CPU 0 L1D next line prefetcher
Heartbeat CPU 0 instructions: 10000000 cycles: 3405419 heartbeat IPC: 2.9365 cumulative IPC: 2.9365 (Simulation time: 0 hr 5 min 52 sec) 
Heartbeat CPU 0 instructions: 20000002 cycles: 6861579 heartbeat IPC: 2.89339 cumulative IPC: 2.91478 (Simulation time: 0 hr 11 min 40 sec) 
Heartbeat CPU 0 instructions: 30000001 cycles: 10294879 heartbeat IPC: 2.91265 cumulative IPC: 2.91407 (Simulation time: 0 hr 17 min 29 sec) 
Heartbeat CPU 0 instructions: 40000002 cycles: 13728143 heartbeat IPC: 2.91268 cumulative IPC: 2.91372 (Simulation time: 0 hr 23 min 15 sec) 
Heartbeat CPU 0 instructions: 50000002 cycles: 17169157 heartbeat IPC: 2.90612 cumulative IPC: 2.9122 (Simulation time: 0 hr 28 min 57 sec) 

Warmup complete CPU 0 instructions: 50000002 cycles: 17169157 (Simulation time: 0 hr 28 min 57 sec) 

Heartbeat CPU 0 instructions: 60000002 cycles: 23150964 heartbeat IPC: 1.67174 cumulative IPC: 1.67174 (Simulation time: 0 hr 36 min 30 sec) 
Heartbeat CPU 0 instructions: 70000001 cycles: 29194740 heartbeat IPC: 1.65459 cumulative IPC: 1.66312 (Simulation time: 0 hr 44 min 12 sec) 
Heartbeat CPU 0 instructions: 80000002 cycles: 35112870 heartbeat IPC: 1.68972 cumulative IPC: 1.67189 (Simulation time: 0 hr 52 min 4 sec) 
Heartbeat CPU 0 instructions: 90000000 cycles: 41583961 heartbeat IPC: 1.54533 cumulative IPC: 1.63835 (Simulation time: 0 hr 59 min 42 sec) 
Heartbeat CPU 0 instructions: 100000003 cycles: 47545697 heartbeat IPC: 1.67736 cumulative IPC: 1.64601 (Simulation time: 1 hr 7 min 15 sec) 
Finished CPU 0 instructions: 50000001 cycles: 30376540 cumulative IPC: 1.64601 (Simulation time: 1 hr 7 min 15 sec) 

ChampSim completed all CPUs

Region of Interest Statistics

CPU 0 cumulative IPC: 1.64601 instructions: 50000001 cycles: 30376540
L1D TOTAL     ACCESS:   19148526  HIT:   18809264  MISS:     339262
L1D LOAD      ACCESS:    6497060  HIT:    6379982  MISS:     117078
L1D RFO       ACCESS:    6418176  HIT:    6328293  MISS:      89883
L1D PREFETCH  ACCESS:    6233290  HIT:    6100989  MISS:     132301
L1D WRITEBACK ACCESS:          0  HIT:          0  MISS:          0
L1D PREFETCH  REQUESTED:    6507590  ISSUED:    6305247  USEFUL:      53476  USELESS:      78967
L1D AVERAGE MISS LATENCY: 49.7292 cycles
L1I TOTAL     ACCESS:   20550973  HIT:   19404639  MISS:    1146334
L1I LOAD      ACCESS:    9523488  HIT:    9357098  MISS:     166390
L1I RFO       ACCESS:          0  HIT:          0  MISS:          0
L1I PREFETCH  ACCESS:   11027485  HIT:   10047541  MISS:     979944
L1I WRITEBACK ACCESS:          0  HIT:          0  MISS:          0
L1I PREFETCH  REQUESTED:   12516295  ISSUED:   12516295  USEFUL:     546389  USELESS:     433499
L1I AVERAGE MISS LATENCY: 15.5251 cycles
L2C TOTAL     ACCESS:    2007795  HIT:    1760848  MISS:     246947
L2C LOAD      ACCESS:     137713  HIT:      98686  MISS:      39027
L2C RFO       ACCESS:      88774  HIT:      21979  MISS:      66795
L2C PREFETCH  ACCESS:    1655824  HIT:    1515352  MISS:     140472
L2C WRITEBACK ACCESS:     125484  HIT:     124831  MISS:        653
L2C PREFETCH  REQUESTED:     919266  ISSUED:     918896  USEFUL:      11086  USELESS:     128090
L2C AVERAGE MISS LATENCY: 65.1568 cycles
LLC TOTAL     ACCESS:     555348  HIT:     493008  MISS:      62340
LLC LOAD      ACCESS:      39026  HIT:      33802  MISS:       5224
LLC RFO       ACCESS:      66794  HIT:      36910  MISS:      29884
LLC PREFETCH  ACCESS:     364070  HIT:     337041  MISS:      27029
LLC WRITEBACK ACCESS:      85458  HIT:      85255  MISS:        203
LLC PREFETCH  REQUESTED:          0  ISSUED:          0  USEFUL:       3989  USELESS:      21620
LLC AVERAGE MISS LATENCY: 179.358 cycles
Major fault: 0 Minor fault: 3116
CPU 0 L1D next line prefetcher final stats

DRAM Statistics
 CHANNEL 0
 RQ ROW_BUFFER_HIT:      22325  ROW_BUFFER_MISS:      39811
 DBUS_CONGESTED:      45173
 WQ ROW_BUFFER_HIT:       8965  ROW_BUFFER_MISS:      28367  FULL:          0

 AVG_CONGESTED_CYCLE: 6

CPU 0 Branch Prediction Accuracy: 99.2117% MPKI: 1.49752 Average ROB Occupancy at Mispredict: 112.13

Branch types
NOT_BRANCH: 40501616 81.0032%
BRANCH_DIRECT_JUMP: 517397 1.03479%
BRANCH_INDIRECT: 112348 0.224696%
BRANCH_CONDITIONAL: 6698737 13.3975%
BRANCH_DIRECT_CALL: 960974 1.92195%
BRANCH_INDIRECT_CALL: 123707 0.247414%
BRANCH_RETURN: 1084929 2.16986%
BRANCH_OTHER: 0 0%

