Initialize SIGNATURE TABLE
ST_SET: 1
ST_WAY: 256
ST_TAG_BIT: 16
ST_TAG_MASK: ffff

Initialize PATTERN TABLE
PT_SET: 512
PT_WAY: 4
SIG_DELTA_BIT: 7
C_SIG_BIT: 4
C_DELTA_BIT: 4

Initialize PREFETCH FILTER
FILTER_SET: 1024

*** ChampSim Multicore Out-of-Order Simulator ***

Warmup Instructions: 50000000
Simulation Instructions: 50000000
Number of CPUs: 1
LLC sets: 2048
LLC ways: 16
Off-chip DRAM Size: 4096 MB Channels: 1 Width: 64-bit Data Rate: 3200 MT/s

CPU 0 runs /home/sankara2004/240C/hw1/ChampSim_2/ChampSim/ipc1_public/client_007.champsimtrace.xz
LHT KB: 126.25
SCC KB: 1.56
Total KB: 127.81
CPU 0 L1D next line prefetcher
Heartbeat CPU 0 instructions: 10000001 cycles: 3641639 heartbeat IPC: 2.74602 cumulative IPC: 2.74602 (Simulation time: 0 hr 5 min 42 sec) 
Heartbeat CPU 0 instructions: 20000003 cycles: 7032865 heartbeat IPC: 2.94879 cumulative IPC: 2.84379 (Simulation time: 0 hr 11 min 21 sec) 
Heartbeat CPU 0 instructions: 30000000 cycles: 10903773 heartbeat IPC: 2.58337 cumulative IPC: 2.75134 (Simulation time: 0 hr 17 min 4 sec) 
Heartbeat CPU 0 instructions: 40000003 cycles: 15064005 heartbeat IPC: 2.40371 cumulative IPC: 2.65534 (Simulation time: 0 hr 22 min 45 sec) 
Heartbeat CPU 0 instructions: 50000002 cycles: 18468690 heartbeat IPC: 2.93713 cumulative IPC: 2.70728 (Simulation time: 0 hr 28 min 22 sec) 

Warmup complete CPU 0 instructions: 50000002 cycles: 18468690 (Simulation time: 0 hr 28 min 22 sec) 

Heartbeat CPU 0 instructions: 60000003 cycles: 25405898 heartbeat IPC: 1.4415 cumulative IPC: 1.4415 (Simulation time: 0 hr 35 min 44 sec) 
Heartbeat CPU 0 instructions: 70000003 cycles: 34249862 heartbeat IPC: 1.13071 cumulative IPC: 1.26733 (Simulation time: 0 hr 43 min 14 sec) 
Heartbeat CPU 0 instructions: 80000002 cycles: 39571967 heartbeat IPC: 1.87896 cumulative IPC: 1.42158 (Simulation time: 0 hr 50 min 49 sec) 
Heartbeat CPU 0 instructions: 90000002 cycles: 47242838 heartbeat IPC: 1.30363 cumulative IPC: 1.39014 (Simulation time: 0 hr 58 min 10 sec) 
Heartbeat CPU 0 instructions: 100000002 cycles: 56180673 heartbeat IPC: 1.11884 cumulative IPC: 1.32584 (Simulation time: 1 hr 5 min 19 sec) 
Finished CPU 0 instructions: 50000000 cycles: 37711983 cumulative IPC: 1.32584 (Simulation time: 1 hr 5 min 19 sec) 

ChampSim completed all CPUs

Region of Interest Statistics

CPU 0 cumulative IPC: 1.32584 instructions: 50000000 cycles: 37711983
L1D TOTAL     ACCESS:   21229286  HIT:   20060273  MISS:    1169013
L1D LOAD      ACCESS:    8385609  HIT:    7845978  MISS:     539631
L1D RFO       ACCESS:    4869162  HIT:    4778151  MISS:      91011
L1D PREFETCH  ACCESS:    7974515  HIT:    7436144  MISS:     538371
L1D WRITEBACK ACCESS:          0  HIT:          0  MISS:          0
L1D PREFETCH  REQUESTED:    8437618  ISSUED:    8194406  USEFUL:     157879  USELESS:     380507
L1D AVERAGE MISS LATENCY: 34.6372 cycles
L1I TOTAL     ACCESS:   15254322  HIT:   14251640  MISS:    1002682
L1I LOAD      ACCESS:    9073470  HIT:    8924600  MISS:     148870
L1I RFO       ACCESS:          0  HIT:          0  MISS:          0
L1I PREFETCH  ACCESS:    6180852  HIT:    5327040  MISS:     853812
L1I WRITEBACK ACCESS:          0  HIT:          0  MISS:          0
L1I PREFETCH  REQUESTED:    6946704  ISSUED:    6946704  USEFUL:     693556  USELESS:     160198
L1I AVERAGE MISS LATENCY: 14.5 cycles
L2C TOTAL     ACCESS:    3220956  HIT:    3009973  MISS:     210983
L2C LOAD      ACCESS:     520310  HIT:     452124  MISS:      68186
L2C RFO       ACCESS:      89458  HIT:      47940  MISS:      41518
L2C PREFETCH  ACCESS:    2283510  HIT:    2182318  MISS:     101192
L2C WRITEBACK ACCESS:     327678  HIT:     327591  MISS:         87
L2C PREFETCH  REQUESTED:    2328144  ISSUED:    2323268  USEFUL:       8882  USELESS:      92533
L2C AVERAGE MISS LATENCY: 126.208 cycles
LLC TOTAL     ACCESS:     901620  HIT:     731591  MISS:     170029
LLC LOAD      ACCESS:      68108  HIT:      33983  MISS:      34125
LLC RFO       ACCESS:      41517  HIT:       7064  MISS:      34453
LLC PREFETCH  ACCESS:     717024  HIT:     615849  MISS:     101175
LLC WRITEBACK ACCESS:      74971  HIT:      74695  MISS:        276
LLC PREFETCH  REQUESTED:          0  ISSUED:          0  USEFUL:      17613  USELESS:      84777
LLC AVERAGE MISS LATENCY: 185.269 cycles
Major fault: 0 Minor fault: 4419
CPU 0 L1D next line prefetcher final stats

DRAM Statistics
 CHANNEL 0
 RQ ROW_BUFFER_HIT:      35793  ROW_BUFFER_MISS:     133940
 DBUS_CONGESTED:      95306
 WQ ROW_BUFFER_HIT:      12817  ROW_BUFFER_MISS:      45575  FULL:          0

 AVG_CONGESTED_CYCLE: 5

CPU 0 Branch Prediction Accuracy: 98.8607% MPKI: 1.8623 Average ROB Occupancy at Mispredict: 113.499

Branch types
NOT_BRANCH: 41826773 83.6535%
BRANCH_DIRECT_JUMP: 735330 1.47066%
BRANCH_INDIRECT: 269194 0.538388%
BRANCH_CONDITIONAL: 5957947 11.9159%
BRANCH_DIRECT_CALL: 368758 0.737516%
BRANCH_INDIRECT_CALL: 226975 0.45395%
BRANCH_RETURN: 614696 1.22939%
BRANCH_OTHER: 0 0%

