Initialize SIGNATURE TABLE
ST_SET: 1
ST_WAY: 256
ST_TAG_BIT: 16
ST_TAG_MASK: ffff

Initialize PATTERN TABLE
PT_SET: 512
PT_WAY: 4
SIG_DELTA_BIT: 7
C_SIG_BIT: 4
C_DELTA_BIT: 4

Initialize PREFETCH FILTER
FILTER_SET: 1024

*** ChampSim Multicore Out-of-Order Simulator ***

Warmup Instructions: 50000000
Simulation Instructions: 50000000
Number of CPUs: 1
LLC sets: 2048
LLC ways: 16
Off-chip DRAM Size: 4096 MB Channels: 1 Width: 64-bit Data Rate: 3200 MT/s

CPU 0 runs /home/sankara2004/240C/hw1/ChampSim_2/ChampSim/ipc1_public/client_006.champsimtrace.xz
LHT KB: 126.25
SCC KB: 1.56
Total KB: 127.81
CPU 0 L1D next line prefetcher
Heartbeat CPU 0 instructions: 10000003 cycles: 4267552 heartbeat IPC: 2.34326 cumulative IPC: 2.34326 (Simulation time: 0 hr 5 min 56 sec) 
Heartbeat CPU 0 instructions: 20000000 cycles: 8308150 heartbeat IPC: 2.47488 cumulative IPC: 2.40727 (Simulation time: 0 hr 11 min 47 sec) 
Heartbeat CPU 0 instructions: 30000003 cycles: 11373284 heartbeat IPC: 3.2625 cumulative IPC: 2.63776 (Simulation time: 0 hr 17 min 40 sec) 
Heartbeat CPU 0 instructions: 40000000 cycles: 14718909 heartbeat IPC: 2.98898 cumulative IPC: 2.71759 (Simulation time: 0 hr 23 min 29 sec) 
Heartbeat CPU 0 instructions: 50000003 cycles: 18823962 heartbeat IPC: 2.43602 cumulative IPC: 2.65619 (Simulation time: 0 hr 29 min 15 sec) 

Warmup complete CPU 0 instructions: 50000003 cycles: 18823962 (Simulation time: 0 hr 29 min 15 sec) 

Heartbeat CPU 0 instructions: 60000001 cycles: 26645934 heartbeat IPC: 1.27845 cumulative IPC: 1.27845 (Simulation time: 0 hr 36 min 55 sec) 
Heartbeat CPU 0 instructions: 70000003 cycles: 36365322 heartbeat IPC: 1.02887 cumulative IPC: 1.14016 (Simulation time: 0 hr 44 min 44 sec) 
Heartbeat CPU 0 instructions: 80000002 cycles: 44650236 heartbeat IPC: 1.20701 cumulative IPC: 1.16161 (Simulation time: 0 hr 52 min 35 sec) 
Heartbeat CPU 0 instructions: 90000003 cycles: 52475988 heartbeat IPC: 1.27783 cumulative IPC: 1.18864 (Simulation time: 1 hr 0 min 12 sec) 
Heartbeat CPU 0 instructions: 100000001 cycles: 60622556 heartbeat IPC: 1.22751 cumulative IPC: 1.19621 (Simulation time: 1 hr 7 min 40 sec) 
Finished CPU 0 instructions: 50000002 cycles: 41798595 cumulative IPC: 1.19621 (Simulation time: 1 hr 7 min 40 sec) 

ChampSim completed all CPUs

Region of Interest Statistics

CPU 0 cumulative IPC: 1.19621 instructions: 50000002 cycles: 41798595
L1D TOTAL     ACCESS:   16599982  HIT:   15872890  MISS:     727092
L1D LOAD      ACCESS:    6368037  HIT:    5961720  MISS:     406317
L1D RFO       ACCESS:    4334389  HIT:    4291769  MISS:      42620
L1D PREFETCH  ACCESS:    5897556  HIT:    5619401  MISS:     278155
L1D WRITEBACK ACCESS:          0  HIT:          0  MISS:          0
L1D PREFETCH  REQUESTED:    6409596  ISSUED:    6229065  USEFUL:     117080  USELESS:     160949
L1D AVERAGE MISS LATENCY: 81.5829 cycles
L1I TOTAL     ACCESS:   16203683  HIT:   15210762  MISS:     992921
L1I LOAD      ACCESS:    8457744  HIT:    8422281  MISS:      35463
L1I RFO       ACCESS:          0  HIT:          0  MISS:          0
L1I PREFETCH  ACCESS:    7745939  HIT:    6788481  MISS:     957458
L1I WRITEBACK ACCESS:          0  HIT:          0  MISS:          0
L1I PREFETCH  REQUESTED:    8469755  ISSUED:    8469742  USEFUL:     679786  USELESS:     277859
L1I AVERAGE MISS LATENCY: 21.3983 cycles
L2C TOTAL     ACCESS:    2435144  HIT:    1888973  MISS:     546171
L2C LOAD      ACCESS:     345766  HIT:     110449  MISS:     235317
L2C RFO       ACCESS:      42364  HIT:      12404  MISS:      29960
L2C PREFETCH  ACCESS:    1871044  HIT:    1590966  MISS:     280078
L2C WRITEBACK ACCESS:     175970  HIT:     175154  MISS:        816
L2C PREFETCH  REQUESTED:    2591046  ISSUED:    2568302  USEFUL:      10211  USELESS:     271122
L2C AVERAGE MISS LATENCY: 116.365 cycles
LLC TOTAL     ACCESS:    1298739  HIT:     919852  MISS:     378887
LLC LOAD      ACCESS:     225086  HIT:     134163  MISS:      90923
LLC RFO       ACCESS:      29958  HIT:       5202  MISS:      24756
LLC PREFETCH  ACCESS:     909291  HIT:     646625  MISS:     262666
LLC WRITEBACK ACCESS:     134404  HIT:     133862  MISS:        542
LLC PREFETCH  REQUESTED:          0  ISSUED:          0  USEFUL:      40996  USELESS:     224991
LLC AVERAGE MISS LATENCY: 200.178 cycles
Major fault: 0 Minor fault: 10543
CPU 0 L1D next line prefetcher final stats

DRAM Statistics
 CHANNEL 0
 RQ ROW_BUFFER_HIT:      99383  ROW_BUFFER_MISS:     278940
 DBUS_CONGESTED:     221582
 WQ ROW_BUFFER_HIT:      21404  ROW_BUFFER_MISS:      93323  FULL:          0

 AVG_CONGESTED_CYCLE: 5

CPU 0 Branch Prediction Accuracy: 98.1683% MPKI: 3.13642 Average ROB Occupancy at Mispredict: 87.1659

Branch types
NOT_BRANCH: 41438064 82.8761%
BRANCH_DIRECT_JUMP: 413829 0.827658%
BRANCH_INDIRECT: 47058 0.094116%
BRANCH_CONDITIONAL: 6843835 13.6877%
BRANCH_DIRECT_CALL: 536885 1.07377%
BRANCH_INDIRECT_CALL: 90642 0.181284%
BRANCH_RETURN: 629329 1.25866%
BRANCH_OTHER: 0 0%

