Initialize SIGNATURE TABLE
ST_SET: 1
ST_WAY: 256
ST_TAG_BIT: 16
ST_TAG_MASK: ffff

Initialize PATTERN TABLE
PT_SET: 512
PT_WAY: 4
SIG_DELTA_BIT: 7
C_SIG_BIT: 4
C_DELTA_BIT: 4

Initialize PREFETCH FILTER
FILTER_SET: 1024

*** ChampSim Multicore Out-of-Order Simulator ***

Warmup Instructions: 50000000
Simulation Instructions: 50000000
Number of CPUs: 1
LLC sets: 2048
LLC ways: 16
Off-chip DRAM Size: 4096 MB Channels: 1 Width: 64-bit Data Rate: 3200 MT/s

CPU 0 runs /home/sankara2004/240C/hw1/ChampSim_2/ChampSim/ipc1_public/client_003.champsimtrace.xz
LHT KB: 126.25
SCC KB: 1.56
Total KB: 127.81
CPU 0 L1D next line prefetcher
Heartbeat CPU 0 instructions: 10000000 cycles: 3478724 heartbeat IPC: 2.87462 cumulative IPC: 2.87462 (Simulation time: 0 hr 5 min 55 sec) 
Heartbeat CPU 0 instructions: 20000002 cycles: 6933341 heartbeat IPC: 2.89468 cumulative IPC: 2.88461 (Simulation time: 0 hr 11 min 43 sec) 
Heartbeat CPU 0 instructions: 30000003 cycles: 10494420 heartbeat IPC: 2.80814 cumulative IPC: 2.85866 (Simulation time: 0 hr 17 min 34 sec) 
Heartbeat CPU 0 instructions: 40000001 cycles: 14111059 heartbeat IPC: 2.765 cumulative IPC: 2.83466 (Simulation time: 0 hr 23 min 22 sec) 
Heartbeat CPU 0 instructions: 50000003 cycles: 17656301 heartbeat IPC: 2.82068 cumulative IPC: 2.83185 (Simulation time: 0 hr 29 min 6 sec) 

Warmup complete CPU 0 instructions: 50000003 cycles: 17656301 (Simulation time: 0 hr 29 min 6 sec) 

Heartbeat CPU 0 instructions: 60000002 cycles: 23890569 heartbeat IPC: 1.60404 cumulative IPC: 1.60404 (Simulation time: 0 hr 36 min 43 sec) 
Heartbeat CPU 0 instructions: 70000001 cycles: 29982621 heartbeat IPC: 1.64148 cumulative IPC: 1.62254 (Simulation time: 0 hr 44 min 31 sec) 
Heartbeat CPU 0 instructions: 80000003 cycles: 36795138 heartbeat IPC: 1.46789 cumulative IPC: 1.56749 (Simulation time: 0 hr 52 min 21 sec) 
Heartbeat CPU 0 instructions: 90000000 cycles: 45615586 heartbeat IPC: 1.13373 cumulative IPC: 1.43065 (Simulation time: 0 hr 59 min 59 sec) 
Heartbeat CPU 0 instructions: 100000003 cycles: 56474116 heartbeat IPC: 0.920935 cumulative IPC: 1.28807 (Simulation time: 1 hr 7 min 31 sec) 
Finished CPU 0 instructions: 50000000 cycles: 38817815 cumulative IPC: 1.28807 (Simulation time: 1 hr 7 min 31 sec) 

ChampSim completed all CPUs

Region of Interest Statistics

CPU 0 cumulative IPC: 1.28807 instructions: 50000000 cycles: 38817815
L1D TOTAL     ACCESS:   17660878  HIT:   17164928  MISS:     495950
L1D LOAD      ACCESS:    6044818  HIT:    5919946  MISS:     124872
L1D RFO       ACCESS:    5950598  HIT:    5716155  MISS:     234443
L1D PREFETCH  ACCESS:    5665462  HIT:    5528827  MISS:     136635
L1D WRITEBACK ACCESS:          0  HIT:          0  MISS:          0
L1D PREFETCH  REQUESTED:    6086371  ISSUED:    5945361  USEFUL:      68762  USELESS:      67922
L1D AVERAGE MISS LATENCY: 124.415 cycles
L1I TOTAL     ACCESS:   20770977  HIT:   19626235  MISS:    1144742
L1I LOAD      ACCESS:    9450100  HIT:    9323313  MISS:     126787
L1I RFO       ACCESS:          0  HIT:          0  MISS:          0
L1I PREFETCH  ACCESS:   11320877  HIT:   10302922  MISS:    1017955
L1I WRITEBACK ACCESS:          0  HIT:          0  MISS:          0
L1I PREFETCH  REQUESTED:   12862189  ISSUED:   12862077  USEFUL:     485954  USELESS:     532048
L1I AVERAGE MISS LATENCY: 18.4366 cycles
L2C TOTAL     ACCESS:    2336406  HIT:    1921736  MISS:     414670
L2C LOAD      ACCESS:     123044  HIT:      85644  MISS:      37400
L2C RFO       ACCESS:     232360  HIT:      24990  MISS:     207370
L2C PREFETCH  ACCESS:    1711718  HIT:    1543265  MISS:     168453
L2C WRITEBACK ACCESS:     269284  HIT:     267837  MISS:       1447
L2C PREFETCH  REQUESTED:    1171367  ISSUED:    1171110  USEFUL:      10395  USELESS:     158031
L2C AVERAGE MISS LATENCY: 165.763 cycles
LLC TOTAL     ACCESS:     989813  HIT:     700971  MISS:     288842
LLC LOAD      ACCESS:      37296  HIT:      26433  MISS:      10863
LLC RFO       ACCESS:     207361  HIT:      34653  MISS:     172708
LLC PREFETCH  ACCESS:     519794  HIT:     414927  MISS:     104867
LLC WRITEBACK ACCESS:     225362  HIT:     224958  MISS:        404
LLC PREFETCH  REQUESTED:          0  ISSUED:          0  USEFUL:       8083  USELESS:      97067
LLC AVERAGE MISS LATENCY: 235.861 cycles
Major fault: 0 Minor fault: 5095
CPU 0 L1D next line prefetcher final stats

DRAM Statistics
 CHANNEL 0
 RQ ROW_BUFFER_HIT:     101974  ROW_BUFFER_MISS:     186458
 DBUS_CONGESTED:     262848
 WQ ROW_BUFFER_HIT:      58223  ROW_BUFFER_MISS:     121680  FULL:          0

 AVG_CONGESTED_CYCLE: 6

CPU 0 Branch Prediction Accuracy: 98.6631% MPKI: 2.66884 Average ROB Occupancy at Mispredict: 78.3347

Branch types
NOT_BRANCH: 40018780 80.0376%
BRANCH_DIRECT_JUMP: 370861 0.741722%
BRANCH_INDIRECT: 83253 0.166506%
BRANCH_CONDITIONAL: 7877436 15.7549%
BRANCH_DIRECT_CALL: 722316 1.44463%
BRANCH_INDIRECT_CALL: 101901 0.203802%
BRANCH_RETURN: 825355 1.65071%
BRANCH_OTHER: 0 0%

