Initialize SIGNATURE TABLE
ST_SET: 1
ST_WAY: 256
ST_TAG_BIT: 16
ST_TAG_MASK: ffff

Initialize PATTERN TABLE
PT_SET: 512
PT_WAY: 4
SIG_DELTA_BIT: 7
C_SIG_BIT: 4
C_DELTA_BIT: 4

Initialize PREFETCH FILTER
FILTER_SET: 1024

*** ChampSim Multicore Out-of-Order Simulator ***

Warmup Instructions: 50000000
Simulation Instructions: 50000000
Number of CPUs: 1
LLC sets: 2048
LLC ways: 16
Off-chip DRAM Size: 4096 MB Channels: 1 Width: 64-bit Data Rate: 3200 MT/s

CPU 0 runs /home/sankara2004/240C/hw1/ChampSim_2/ChampSim/ipc1_public/client_002.champsimtrace.xz
LHT KB: 252.50
SCC KB: 1.56
Total KB: 254.06
CPU 0 L1D next line prefetcher
Heartbeat CPU 0 instructions: 10000000 cycles: 3405571 heartbeat IPC: 2.93637 cumulative IPC: 2.93637 (Simulation time: 0 hr 5 min 55 sec) 
Heartbeat CPU 0 instructions: 20000002 cycles: 6861619 heartbeat IPC: 2.89348 cumulative IPC: 2.91476 (Simulation time: 0 hr 11 min 40 sec) 
Heartbeat CPU 0 instructions: 30000001 cycles: 10295017 heartbeat IPC: 2.91257 cumulative IPC: 2.91403 (Simulation time: 0 hr 17 min 25 sec) 
Heartbeat CPU 0 instructions: 40000002 cycles: 13728350 heartbeat IPC: 2.91262 cumulative IPC: 2.91368 (Simulation time: 0 hr 23 min 10 sec) 
Heartbeat CPU 0 instructions: 50000002 cycles: 17169776 heartbeat IPC: 2.90577 cumulative IPC: 2.91209 (Simulation time: 0 hr 28 min 52 sec) 

Warmup complete CPU 0 instructions: 50000002 cycles: 17169776 (Simulation time: 0 hr 28 min 52 sec) 

Heartbeat CPU 0 instructions: 60000002 cycles: 23148590 heartbeat IPC: 1.67257 cumulative IPC: 1.67257 (Simulation time: 0 hr 36 min 24 sec) 
Heartbeat CPU 0 instructions: 70000001 cycles: 29182166 heartbeat IPC: 1.65739 cumulative IPC: 1.66495 (Simulation time: 0 hr 44 min 5 sec) 
Heartbeat CPU 0 instructions: 80000002 cycles: 35101488 heartbeat IPC: 1.68938 cumulative IPC: 1.67301 (Simulation time: 0 hr 51 min 53 sec) 
Heartbeat CPU 0 instructions: 90000000 cycles: 41569704 heartbeat IPC: 1.54602 cumulative IPC: 1.63935 (Simulation time: 0 hr 59 min 27 sec) 
Heartbeat CPU 0 instructions: 100000003 cycles: 47534102 heartbeat IPC: 1.67662 cumulative IPC: 1.64667 (Simulation time: 1 hr 6 min 53 sec) 
Finished CPU 0 instructions: 50000001 cycles: 30364326 cumulative IPC: 1.64667 (Simulation time: 1 hr 6 min 53 sec) 

ChampSim completed all CPUs

Region of Interest Statistics

CPU 0 cumulative IPC: 1.64667 instructions: 50000001 cycles: 30364326
L1D TOTAL     ACCESS:   19146345  HIT:   18807070  MISS:     339275
L1D LOAD      ACCESS:    6496210  HIT:    6379053  MISS:     117157
L1D RFO       ACCESS:    6417822  HIT:    6327900  MISS:      89922
L1D PREFETCH  ACCESS:    6232313  HIT:    6100117  MISS:     132196
L1D WRITEBACK ACCESS:          0  HIT:          0  MISS:          0
L1D PREFETCH  REQUESTED:    6506711  ISSUED:    6304344  USEFUL:      53379  USELESS:      78958
L1D AVERAGE MISS LATENCY: 49.7989 cycles
L1I TOTAL     ACCESS:   20850614  HIT:   19669823  MISS:    1180791
L1I LOAD      ACCESS:    9525297  HIT:    9364898  MISS:     160399
L1I RFO       ACCESS:          0  HIT:          0  MISS:          0
L1I PREFETCH  ACCESS:   11325317  HIT:   10304925  MISS:    1020392
L1I WRITEBACK ACCESS:          0  HIT:          0  MISS:          0
L1I PREFETCH  REQUESTED:   12852771  ISSUED:   12852771  USEFUL:     556169  USELESS:     464148
L1I AVERAGE MISS LATENCY: 15.6636 cycles
L2C TOTAL     ACCESS:    2051457  HIT:    1803275  MISS:     248182
L2C LOAD      ACCESS:     139515  HIT:      99774  MISS:      39741
L2C RFO       ACCESS:      88778  HIT:      21814  MISS:      66964
L2C PREFETCH  ACCESS:    1697670  HIT:    1556896  MISS:     140774
L2C WRITEBACK ACCESS:     125494  HIT:     124791  MISS:        703
L2C PREFETCH  REQUESTED:     939407  ISSUED:     938935  USEFUL:      10852  USELESS:     128740
L2C AVERAGE MISS LATENCY: 64.9422 cycles
LLC TOTAL     ACCESS:     562066  HIT:     499982  MISS:      62084
LLC LOAD      ACCESS:      39740  HIT:      34498  MISS:       5242
LLC RFO       ACCESS:      66964  HIT:      37080  MISS:      29884
LLC PREFETCH  ACCESS:     369703  HIT:     342938  MISS:      26765
LLC WRITEBACK ACCESS:      85659  HIT:      85466  MISS:        193
LLC PREFETCH  REQUESTED:          0  ISSUED:          0  USEFUL:       4038  USELESS:      21273
LLC AVERAGE MISS LATENCY: 179.337 cycles
Major fault: 0 Minor fault: 3116
CPU 0 L1D next line prefetcher final stats

DRAM Statistics
 CHANNEL 0
 RQ ROW_BUFFER_HIT:      22289  ROW_BUFFER_MISS:      39602
 DBUS_CONGESTED:      45155
 WQ ROW_BUFFER_HIT:       8790  ROW_BUFFER_MISS:      28624  FULL:          0

 AVG_CONGESTED_CYCLE: 6

CPU 0 Branch Prediction Accuracy: 99.2117% MPKI: 1.49752 Average ROB Occupancy at Mispredict: 112.633

Branch types
NOT_BRANCH: 40501616 81.0032%
BRANCH_DIRECT_JUMP: 517397 1.03479%
BRANCH_INDIRECT: 112348 0.224696%
BRANCH_CONDITIONAL: 6698737 13.3975%
BRANCH_DIRECT_CALL: 960974 1.92195%
BRANCH_INDIRECT_CALL: 123707 0.247414%
BRANCH_RETURN: 1084929 2.16986%
BRANCH_OTHER: 0 0%

