Initialize SIGNATURE TABLE
ST_SET: 1
ST_WAY: 256
ST_TAG_BIT: 16
ST_TAG_MASK: ffff

Initialize PATTERN TABLE
PT_SET: 512
PT_WAY: 4
SIG_DELTA_BIT: 7
C_SIG_BIT: 4
C_DELTA_BIT: 4

Initialize PREFETCH FILTER
FILTER_SET: 1024

*** ChampSim Multicore Out-of-Order Simulator ***

Warmup Instructions: 50000000
Simulation Instructions: 50000000
Number of CPUs: 1
LLC sets: 2048
LLC ways: 16
Off-chip DRAM Size: 4096 MB Channels: 1 Width: 64-bit Data Rate: 3200 MT/s

CPU 0 runs /home/sankara2004/240C/hw1/ChampSim_2/ChampSim/ipc1_public/client_001.champsimtrace.xz
CPU 0 EPI prefetcher
CPU 0 L1D next line prefetcher
Heartbeat CPU 0 instructions: 10000003 cycles: 3410457 heartbeat IPC: 2.93216 cumulative IPC: 2.93216 (Simulation time: 0 hr 6 min 22 sec) 
Heartbeat CPU 0 instructions: 20000001 cycles: 7118912 heartbeat IPC: 2.69654 cumulative IPC: 2.80942 (Simulation time: 0 hr 12 min 54 sec) 
Heartbeat CPU 0 instructions: 30000001 cycles: 10481895 heartbeat IPC: 2.97355 cumulative IPC: 2.86208 (Simulation time: 0 hr 19 min 32 sec) 
Heartbeat CPU 0 instructions: 40000003 cycles: 14351819 heartbeat IPC: 2.58403 cumulative IPC: 2.7871 (Simulation time: 0 hr 26 min 5 sec) 
Heartbeat CPU 0 instructions: 50000003 cycles: 17649417 heartbeat IPC: 3.03251 cumulative IPC: 2.83295 (Simulation time: 0 hr 32 min 37 sec) 

Warmup complete CPU 0 instructions: 50000003 cycles: 17649417 (Simulation time: 0 hr 32 min 37 sec) 

Heartbeat CPU 0 instructions: 60000000 cycles: 26684816 heartbeat IPC: 1.10676 cumulative IPC: 1.10676 (Simulation time: 0 hr 40 min 55 sec) 
Heartbeat CPU 0 instructions: 70000000 cycles: 33009548 heartbeat IPC: 1.58109 cumulative IPC: 1.30207 (Simulation time: 0 hr 49 min 22 sec) 
Heartbeat CPU 0 instructions: 80000002 cycles: 42342029 heartbeat IPC: 1.07153 cumulative IPC: 1.21494 (Simulation time: 0 hr 58 min 17 sec) 
Heartbeat CPU 0 instructions: 90000000 cycles: 48516304 heartbeat IPC: 1.61962 cumulative IPC: 1.29589 (Simulation time: 1 hr 6 min 46 sec) 
Heartbeat CPU 0 instructions: 100000002 cycles: 57354896 heartbeat IPC: 1.1314 cumulative IPC: 1.25927 (Simulation time: 1 hr 15 min 10 sec) 
Finished CPU 0 instructions: 50000003 cycles: 39705480 cumulative IPC: 1.25927 (Simulation time: 1 hr 15 min 10 sec) 

ChampSim completed all CPUs

Region of Interest Statistics

CPU 0 cumulative IPC: 1.25927 instructions: 50000003 cycles: 39705480
L1D TOTAL     ACCESS:   21230856  HIT:   20394414  MISS:     836442
L1D LOAD      ACCESS:    8817342  HIT:    8422553  MISS:     394789
L1D RFO       ACCESS:    4040451  HIT:    3981375  MISS:      59076
L1D PREFETCH  ACCESS:    8373063  HIT:    7990486  MISS:     382577
L1D WRITEBACK ACCESS:          0  HIT:          0  MISS:          0
L1D PREFETCH  REQUESTED:    8862657  ISSUED:    8553024  USEFUL:     129583  USELESS:     252968
L1D AVERAGE MISS LATENCY: 47.7777 cycles
L1I TOTAL     ACCESS:   35093730  HIT:   34617586  MISS:     476144
L1I LOAD      ACCESS:    8924634  HIT:    8914320  MISS:      10314
L1I RFO       ACCESS:          0  HIT:          0  MISS:          0
L1I PREFETCH  ACCESS:   26169096  HIT:   25703266  MISS:     465830
L1I WRITEBACK ACCESS:          0  HIT:          0  MISS:          0
L1I PREFETCH  REQUESTED:   32549489  ISSUED:   32549489  USEFUL:     320043  USELESS:     145731
L1I AVERAGE MISS LATENCY: 21.7835 cycles
L2C TOTAL     ACCESS:    2003037  HIT:    1696754  MISS:     306283
L2C LOAD      ACCESS:     382334  HIT:     270165  MISS:     112169
L2C RFO       ACCESS:      58336  HIT:      21429  MISS:      36907
L2C PREFETCH  ACCESS:    1372778  HIT:    1215802  MISS:     156976
L2C WRITEBACK ACCESS:     189589  HIT:     189358  MISS:        231
L2C PREFETCH  REQUESTED:    1758869  ISSUED:    1753697  USEFUL:      14168  USELESS:     141648
L2C AVERAGE MISS LATENCY: 106.843 cycles
LLC TOTAL     ACCESS:     802675  HIT:     604534  MISS:     198141
LLC LOAD      ACCESS:     111828  HIT:      70179  MISS:      41649
LLC RFO       ACCESS:      36907  HIT:       8788  MISS:      28119
LLC PREFETCH  ACCESS:     547731  HIT:     420006  MISS:     127725
LLC WRITEBACK ACCESS:     106209  HIT:     105561  MISS:        648
LLC PREFETCH  REQUESTED:          0  ISSUED:          0  USEFUL:      28271  USELESS:     100971
LLC AVERAGE MISS LATENCY: 191.747 cycles
Major fault: 0 Minor fault: 3444
CPU 0 L1I EPI prefetcher final stats
CPU 0 L1D next line prefetcher final stats

DRAM Statistics
 CHANNEL 0
 RQ ROW_BUFFER_HIT:      48158  ROW_BUFFER_MISS:     149324
 DBUS_CONGESTED:     117934
 WQ ROW_BUFFER_HIT:      15740  ROW_BUFFER_MISS:      65072  FULL:          0

 AVG_CONGESTED_CYCLE: 5

CPU 0 Branch Prediction Accuracy: 97.9037% MPKI: 3.63418 Average ROB Occupancy at Mispredict: 87.0567

Branch types
NOT_BRANCH: 41331383 82.6628%
BRANCH_DIRECT_JUMP: 455615 0.91123%
BRANCH_INDIRECT: 20390 0.04078%
BRANCH_CONDITIONAL: 6745374 13.4907%
BRANCH_DIRECT_CALL: 494532 0.989064%
BRANCH_INDIRECT_CALL: 228815 0.45763%
BRANCH_RETURN: 723560 1.44712%
BRANCH_OTHER: 0 0%

