Initialize SIGNATURE TABLE
ST_SET: 1
ST_WAY: 256
ST_TAG_BIT: 16
ST_TAG_MASK: ffff

Initialize PATTERN TABLE
PT_SET: 512
PT_WAY: 4
SIG_DELTA_BIT: 7
C_SIG_BIT: 4
C_DELTA_BIT: 4

Initialize PREFETCH FILTER
FILTER_SET: 1024

*** ChampSim Multicore Out-of-Order Simulator ***

Warmup Instructions: 50000000
Simulation Instructions: 50000000
Number of CPUs: 1
LLC sets: 2048
LLC ways: 16
Off-chip DRAM Size: 4096 MB Channels: 1 Width: 64-bit Data Rate: 3200 MT/s

CPU 0 runs /home/sankara2004/240C/hw1/ChampSim_2/ChampSim/ipc1_public/client_005.champsimtrace.xz
LHT KB: 126.25
SCC KB: 1.56
Total KB: 127.81
CPU 0 L1D next line prefetcher
Heartbeat CPU 0 instructions: 10000001 cycles: 3292104 heartbeat IPC: 3.03757 cumulative IPC: 3.03757 (Simulation time: 0 hr 5 min 39 sec) 
Heartbeat CPU 0 instructions: 20000002 cycles: 6699006 heartbeat IPC: 2.93522 cumulative IPC: 2.98552 (Simulation time: 0 hr 11 min 15 sec) 
Heartbeat CPU 0 instructions: 30000001 cycles: 10392284 heartbeat IPC: 2.70762 cumulative IPC: 2.88676 (Simulation time: 0 hr 16 min 55 sec) 
Heartbeat CPU 0 instructions: 40000000 cycles: 14070073 heartbeat IPC: 2.71902 cumulative IPC: 2.84291 (Simulation time: 0 hr 22 min 31 sec) 
Heartbeat CPU 0 instructions: 50000001 cycles: 17343212 heartbeat IPC: 3.05517 cumulative IPC: 2.88297 (Simulation time: 0 hr 28 min 6 sec) 

Warmup complete CPU 0 instructions: 50000001 cycles: 17343212 (Simulation time: 0 hr 28 min 6 sec) 

Heartbeat CPU 0 instructions: 60000002 cycles: 24920448 heartbeat IPC: 1.31974 cumulative IPC: 1.31974 (Simulation time: 0 hr 35 min 26 sec) 
Heartbeat CPU 0 instructions: 70000003 cycles: 32176090 heartbeat IPC: 1.37824 cumulative IPC: 1.34836 (Simulation time: 0 hr 42 min 55 sec) 
Heartbeat CPU 0 instructions: 80000001 cycles: 39049716 heartbeat IPC: 1.45484 cumulative IPC: 1.38207 (Simulation time: 0 hr 50 min 31 sec) 
Heartbeat CPU 0 instructions: 90000002 cycles: 48574570 heartbeat IPC: 1.04988 cumulative IPC: 1.28076 (Simulation time: 0 hr 57 min 54 sec) 
Heartbeat CPU 0 instructions: 100000002 cycles: 56129051 heartbeat IPC: 1.32372 cumulative IPC: 1.28913 (Simulation time: 1 hr 5 min 9 sec) 
Finished CPU 0 instructions: 50000001 cycles: 38785839 cumulative IPC: 1.28913 (Simulation time: 1 hr 5 min 9 sec) 

ChampSim completed all CPUs

Region of Interest Statistics

CPU 0 cumulative IPC: 1.28913 instructions: 50000001 cycles: 38785839
L1D TOTAL     ACCESS:   19654341  HIT:   19118539  MISS:     535802
L1D LOAD      ACCESS:    6656664  HIT:    6484827  MISS:     171837
L1D RFO       ACCESS:    6792383  HIT:    6607816  MISS:     184567
L1D PREFETCH  ACCESS:    6205294  HIT:    6025896  MISS:     179398
L1D WRITEBACK ACCESS:          0  HIT:          0  MISS:          0
L1D PREFETCH  REQUESTED:    6680546  ISSUED:    6311830  USEFUL:      59289  USELESS:     119998
L1D AVERAGE MISS LATENCY: 94.4435 cycles
L1I TOTAL     ACCESS:   19360725  HIT:   18212996  MISS:    1147729
L1I LOAD      ACCESS:    9292285  HIT:    9056332  MISS:     235953
L1I RFO       ACCESS:          0  HIT:          0  MISS:          0
L1I PREFETCH  ACCESS:   10068440  HIT:    9156664  MISS:     911776
L1I WRITEBACK ACCESS:          0  HIT:          0  MISS:          0
L1I PREFETCH  REQUESTED:   11781194  ISSUED:   11781189  USEFUL:     534650  USELESS:     377105
L1I AVERAGE MISS LATENCY: 17.9377 cycles
L2C TOTAL     ACCESS:    2416778  HIT:    2017124  MISS:     399654
L2C LOAD      ACCESS:     196395  HIT:     120434  MISS:      75961
L2C RFO       ACCESS:     180874  HIT:      31517  MISS:     149357
L2C PREFETCH  ACCESS:    1786478  HIT:    1613479  MISS:     172999
L2C WRITEBACK ACCESS:     253031  HIT:     251694  MISS:       1337
L2C PREFETCH  REQUESTED:    1193450  ISSUED:    1193175  USEFUL:      11894  USELESS:     158534
L2C AVERAGE MISS LATENCY: 129.668 cycles
LLC TOTAL     ACCESS:     885591  HIT:     586326  MISS:     299265
LLC LOAD      ACCESS:      75952  HIT:      36538  MISS:      39414
LLC RFO       ACCESS:     149357  HIT:      16311  MISS:     133046
LLC PREFETCH  ACCESS:     460609  HIT:     334684  MISS:     125925
LLC WRITEBACK ACCESS:     199673  HIT:     198793  MISS:        880
LLC PREFETCH  REQUESTED:          0  ISSUED:          0  USEFUL:      20986  USELESS:      98996
LLC AVERAGE MISS LATENCY: 172.627 cycles
Major fault: 0 Minor fault: 6117
CPU 0 L1D next line prefetcher final stats

DRAM Statistics
 CHANNEL 0
 RQ ROW_BUFFER_HIT:      97226  ROW_BUFFER_MISS:     201151
 DBUS_CONGESTED:     238236
 WQ ROW_BUFFER_HIT:      52344  ROW_BUFFER_MISS:     130682  FULL:          0

 AVG_CONGESTED_CYCLE: 6

CPU 0 Branch Prediction Accuracy: 97.8666% MPKI: 3.9013 Average ROB Occupancy at Mispredict: 88.4737

Branch types
NOT_BRANCH: 40856327 81.7127%
BRANCH_DIRECT_JUMP: 484667 0.969334%
BRANCH_INDIRECT: 85086 0.170172%
BRANCH_CONDITIONAL: 6230887 12.4618%
BRANCH_DIRECT_CALL: 1028917 2.05783%
BRANCH_INDIRECT_CALL: 141825 0.28365%
BRANCH_RETURN: 1171985 2.34397%
BRANCH_OTHER: 0 0%

