Initialize SIGNATURE TABLE
ST_SET: 1
ST_WAY: 256
ST_TAG_BIT: 16
ST_TAG_MASK: ffff

Initialize PATTERN TABLE
PT_SET: 512
PT_WAY: 4
SIG_DELTA_BIT: 7
C_SIG_BIT: 4
C_DELTA_BIT: 4

Initialize PREFETCH FILTER
FILTER_SET: 1024

*** ChampSim Multicore Out-of-Order Simulator ***

Warmup Instructions: 50000000
Simulation Instructions: 50000000
Number of CPUs: 1
LLC sets: 2048
LLC ways: 16
Off-chip DRAM Size: 4096 MB Channels: 1 Width: 64-bit Data Rate: 3200 MT/s

CPU 0 runs /home/sankara2004/240C/hw1/ChampSim_2/ChampSim/ipc1_public/client_007.champsimtrace.xz
CPU 0 EPI prefetcher
CPU 0 L1D next line prefetcher
Heartbeat CPU 0 instructions: 10000001 cycles: 3642057 heartbeat IPC: 2.7457 cumulative IPC: 2.7457 (Simulation time: 0 hr 6 min 23 sec) 
Heartbeat CPU 0 instructions: 20000003 cycles: 7033835 heartbeat IPC: 2.94831 cumulative IPC: 2.8434 (Simulation time: 0 hr 12 min 56 sec) 
Heartbeat CPU 0 instructions: 30000000 cycles: 10904933 heartbeat IPC: 2.58325 cumulative IPC: 2.75105 (Simulation time: 0 hr 19 min 36 sec) 
Heartbeat CPU 0 instructions: 40000003 cycles: 15065010 heartbeat IPC: 2.4038 cumulative IPC: 2.65516 (Simulation time: 0 hr 26 min 12 sec) 
Heartbeat CPU 0 instructions: 50000002 cycles: 18469557 heartbeat IPC: 2.93725 cumulative IPC: 2.70716 (Simulation time: 0 hr 32 min 45 sec) 

Warmup complete CPU 0 instructions: 50000002 cycles: 18469557 (Simulation time: 0 hr 32 min 45 sec) 

Heartbeat CPU 0 instructions: 60000003 cycles: 25345072 heartbeat IPC: 1.45444 cumulative IPC: 1.45444 (Simulation time: 0 hr 41 min 5 sec) 
Heartbeat CPU 0 instructions: 70000003 cycles: 34183499 heartbeat IPC: 1.13142 cumulative IPC: 1.27276 (Simulation time: 0 hr 49 min 36 sec) 
Heartbeat CPU 0 instructions: 80000002 cycles: 39487808 heartbeat IPC: 1.88526 cumulative IPC: 1.42733 (Simulation time: 0 hr 58 min 33 sec) 
Heartbeat CPU 0 instructions: 90000002 cycles: 47085131 heartbeat IPC: 1.31625 cumulative IPC: 1.39784 (Simulation time: 1 hr 7 min 2 sec) 
Heartbeat CPU 0 instructions: 100000002 cycles: 56025430 heartbeat IPC: 1.11853 cumulative IPC: 1.33135 (Simulation time: 1 hr 15 min 22 sec) 
Finished CPU 0 instructions: 50000000 cycles: 37555873 cumulative IPC: 1.33135 (Simulation time: 1 hr 15 min 22 sec) 

ChampSim completed all CPUs

Region of Interest Statistics

CPU 0 cumulative IPC: 1.33135 instructions: 50000000 cycles: 37555873
L1D TOTAL     ACCESS:   21192373  HIT:   20023369  MISS:    1169004
L1D LOAD      ACCESS:    8366616  HIT:    7827748  MISS:     538868
L1D RFO       ACCESS:    4868776  HIT:    4777683  MISS:      91093
L1D PREFETCH  ACCESS:    7956981  HIT:    7417938  MISS:     539043
L1D WRITEBACK ACCESS:          0  HIT:          0  MISS:          0
L1D PREFETCH  REQUESTED:    8419006  ISSUED:    8174886  USEFUL:     158623  USELESS:     380435
L1D AVERAGE MISS LATENCY: 34.5623 cycles
L1I TOTAL     ACCESS:   28271180  HIT:   27174769  MISS:    1096411
L1I LOAD      ACCESS:    9127500  HIT:    9116360  MISS:      11140
L1I RFO       ACCESS:          0  HIT:          0  MISS:          0
L1I PREFETCH  ACCESS:   19143680  HIT:   18058409  MISS:    1085271
L1I WRITEBACK ACCESS:          0  HIT:          0  MISS:          0
L1I PREFETCH  REQUESTED:   22717968  ISSUED:   22717968  USEFUL:     857336  USELESS:     227955
L1I AVERAGE MISS LATENCY: 16.9247 cycles
L2C TOTAL     ACCESS:    3256259  HIT:    3048559  MISS:     207700
L2C LOAD      ACCESS:     519476  HIT:     450137  MISS:      69339
L2C RFO       ACCESS:      89513  HIT:      47930  MISS:      41583
L2C PREFETCH  ACCESS:    2319586  HIT:    2222925  MISS:      96661
L2C WRITEBACK ACCESS:     327684  HIT:     327567  MISS:        117
L2C PREFETCH  REQUESTED:    2666478  ISSUED:    2656635  USEFUL:       9033  USELESS:      87809
L2C AVERAGE MISS LATENCY: 125.91 cycles
LLC TOTAL     ACCESS:    1003842  HIT:     834425  MISS:     169417
LLC LOAD      ACCESS:      69229  HIT:      34439  MISS:      34790
LLC RFO       ACCESS:      41583  HIT:       7127  MISS:      34456
LLC PREFETCH  ACCESS:     818511  HIT:     718672  MISS:      99839
LLC WRITEBACK ACCESS:      74519  HIT:      74187  MISS:        332
LLC PREFETCH  REQUESTED:          0  ISSUED:          0  USEFUL:      18579  USELESS:      82265
LLC AVERAGE MISS LATENCY: 184.873 cycles
Major fault: 0 Minor fault: 4405
CPU 0 L1I EPI prefetcher final stats
CPU 0 L1D next line prefetcher final stats

DRAM Statistics
 CHANNEL 0
 RQ ROW_BUFFER_HIT:      35510  ROW_BUFFER_MISS:     133569
 DBUS_CONGESTED:      94310
 WQ ROW_BUFFER_HIT:      12909  ROW_BUFFER_MISS:      45529  FULL:          0

 AVG_CONGESTED_CYCLE: 5

CPU 0 Branch Prediction Accuracy: 98.8607% MPKI: 1.8623 Average ROB Occupancy at Mispredict: 113.89

Branch types
NOT_BRANCH: 41826773 83.6535%
BRANCH_DIRECT_JUMP: 735330 1.47066%
BRANCH_INDIRECT: 269194 0.538388%
BRANCH_CONDITIONAL: 5957947 11.9159%
BRANCH_DIRECT_CALL: 368758 0.737516%
BRANCH_INDIRECT_CALL: 226975 0.45395%
BRANCH_RETURN: 614696 1.22939%
BRANCH_OTHER: 0 0%

