Initialize SIGNATURE TABLE
ST_SET: 1
ST_WAY: 256
ST_TAG_BIT: 16
ST_TAG_MASK: ffff

Initialize PATTERN TABLE
PT_SET: 512
PT_WAY: 4
SIG_DELTA_BIT: 7
C_SIG_BIT: 4
C_DELTA_BIT: 4

Initialize PREFETCH FILTER
FILTER_SET: 1024

*** ChampSim Multicore Out-of-Order Simulator ***

Warmup Instructions: 50000000
Simulation Instructions: 50000000
Number of CPUs: 1
LLC sets: 2048
LLC ways: 16
Off-chip DRAM Size: 4096 MB Channels: 1 Width: 64-bit Data Rate: 3200 MT/s

CPU 0 runs /home/sankara2004/240C/hw1/ChampSim_2/ChampSim/ipc1_public/server_039.champsimtrace.xz
CPU 0 EPI prefetcher
CPU 0 L1D next line prefetcher
Heartbeat CPU 0 instructions: 10000003 cycles: 3451586 heartbeat IPC: 2.89722 cumulative IPC: 2.89722 (Simulation time: 0 hr 0 min 38 sec) 
Heartbeat CPU 0 instructions: 20000002 cycles: 6896266 heartbeat IPC: 2.90303 cumulative IPC: 2.90012 (Simulation time: 0 hr 1 min 15 sec) 
Heartbeat CPU 0 instructions: 30000001 cycles: 10342747 heartbeat IPC: 2.90151 cumulative IPC: 2.90058 (Simulation time: 0 hr 1 min 53 sec) 
Heartbeat CPU 0 instructions: 40000002 cycles: 13784613 heartbeat IPC: 2.9054 cumulative IPC: 2.90179 (Simulation time: 0 hr 2 min 31 sec) 
Heartbeat CPU 0 instructions: 50000001 cycles: 17225801 heartbeat IPC: 2.90597 cumulative IPC: 2.90262 (Simulation time: 0 hr 3 min 9 sec) 

Warmup complete CPU 0 instructions: 50000001 cycles: 17225801 (Simulation time: 0 hr 3 min 9 sec) 

Heartbeat CPU 0 instructions: 60000000 cycles: 23008541 heartbeat IPC: 1.72928 cumulative IPC: 1.72928 (Simulation time: 0 hr 3 min 52 sec) 
Heartbeat CPU 0 instructions: 70000000 cycles: 28788908 heartbeat IPC: 1.72999 cumulative IPC: 1.72964 (Simulation time: 0 hr 4 min 34 sec) 
Heartbeat CPU 0 instructions: 80000000 cycles: 34561804 heartbeat IPC: 1.73223 cumulative IPC: 1.7305 (Simulation time: 0 hr 5 min 16 sec) 
Heartbeat CPU 0 instructions: 90000001 cycles: 40334322 heartbeat IPC: 1.73235 cumulative IPC: 1.73096 (Simulation time: 0 hr 5 min 58 sec) 
Heartbeat CPU 0 instructions: 100000002 cycles: 46114088 heartbeat IPC: 1.73017 cumulative IPC: 1.73081 (Simulation time: 0 hr 6 min 41 sec) 
Finished CPU 0 instructions: 50000001 cycles: 28888287 cumulative IPC: 1.73081 (Simulation time: 0 hr 6 min 41 sec) 

ChampSim completed all CPUs

Region of Interest Statistics

CPU 0 cumulative IPC: 1.73081 instructions: 50000001 cycles: 28888287
L1D TOTAL     ACCESS:   19894407  HIT:   19399730  MISS:     494677
L1D LOAD      ACCESS:    6496104  HIT:    6274527  MISS:     221577
L1D RFO       ACCESS:    7089236  HIT:    7022366  MISS:      66870
L1D PREFETCH  ACCESS:    6309067  HIT:    6102837  MISS:     206230
L1D WRITEBACK ACCESS:          0  HIT:          0  MISS:          0
L1D PREFETCH  REQUESTED:    6511648  ISSUED:    6379140  USEFUL:      50073  USELESS:     156161
L1D AVERAGE MISS LATENCY: 15.0818 cycles
L1I TOTAL     ACCESS:   37509512  HIT:   32766717  MISS:    4742795
L1I LOAD      ACCESS:    9348194  HIT:    9324715  MISS:      23479
L1I RFO       ACCESS:          0  HIT:          0  MISS:          0
L1I PREFETCH  ACCESS:   28161318  HIT:   23442002  MISS:    4719316
L1I WRITEBACK ACCESS:          0  HIT:          0  MISS:          0
L1I PREFETCH  REQUESTED:   33665610  ISSUED:   33665610  USEFUL:    4098931  USELESS:     620388
L1I AVERAGE MISS LATENCY: 14.7524 cycles
L2C TOTAL     ACCESS:    7652976  HIT:    7652914  MISS:         62
L2C LOAD      ACCESS:     230260  HIT:     230257  MISS:          3
L2C RFO       ACCESS:      66752  HIT:      66752  MISS:          0
L2C PREFETCH  ACCESS:    7175935  HIT:    7175876  MISS:         59
L2C WRITEBACK ACCESS:     180029  HIT:     180029  MISS:          0
L2C PREFETCH  REQUESTED:    5585657  ISSUED:    5581466  USEFUL:          1  USELESS:          0
L2C AVERAGE MISS LATENCY: 62.7581 cycles
LLC TOTAL     ACCESS:     672014  HIT:     671749  MISS:        265
LLC LOAD      ACCESS:          3  HIT:          2  MISS:          1
LLC RFO       ACCESS:          0  HIT:          0  MISS:          0
LLC PREFETCH  ACCESS:     672010  HIT:     671746  MISS:        264
LLC WRITEBACK ACCESS:          1  HIT:          1  MISS:          0
LLC PREFETCH  REQUESTED:          0  ISSUED:          0  USEFUL:          2  USELESS:          0
LLC AVERAGE MISS LATENCY: 174.992 cycles
Major fault: 0 Minor fault: 356
CPU 0 L1I EPI prefetcher final stats
CPU 0 L1D next line prefetcher final stats

DRAM Statistics
 CHANNEL 0
 RQ ROW_BUFFER_HIT:         67  ROW_BUFFER_MISS:        198
 DBUS_CONGESTED:         59
 WQ ROW_BUFFER_HIT:          0  ROW_BUFFER_MISS:          0  FULL:          0

 AVG_CONGESTED_CYCLE: 5

CPU 0 Branch Prediction Accuracy: 99.9091% MPKI: 0.1547 Average ROB Occupancy at Mispredict: 305.712

Branch types
NOT_BRANCH: 41495033 82.9901%
BRANCH_DIRECT_JUMP: 491309 0.982618%
BRANCH_INDIRECT: 0 0%
BRANCH_CONDITIONAL: 5595263 11.1905%
BRANCH_DIRECT_CALL: 1028409 2.05682%
BRANCH_INDIRECT_CALL: 180756 0.361512%
BRANCH_RETURN: 1209170 2.41834%
BRANCH_OTHER: 0 0%

