Initialize SIGNATURE TABLE
ST_SET: 1
ST_WAY: 256
ST_TAG_BIT: 16
ST_TAG_MASK: ffff

Initialize PATTERN TABLE
PT_SET: 512
PT_WAY: 4
SIG_DELTA_BIT: 7
C_SIG_BIT: 4
C_DELTA_BIT: 4

Initialize PREFETCH FILTER
FILTER_SET: 1024

*** ChampSim Multicore Out-of-Order Simulator ***

Warmup Instructions: 50000000
Simulation Instructions: 50000000
Number of CPUs: 1
LLC sets: 2048
LLC ways: 16
Off-chip DRAM Size: 4096 MB Channels: 1 Width: 64-bit Data Rate: 3200 MT/s

CPU 0 runs /home/sankara2004/240C/hw1/ChampSim_2/ChampSim/ipc1_public/server_001.champsimtrace.xz
CPU 0 EPI prefetcher
CPU 0 L1D next line prefetcher
Heartbeat CPU 0 instructions: 10000002 cycles: 3155698 heartbeat IPC: 3.16887 cumulative IPC: 3.16887 (Simulation time: 0 hr 0 min 31 sec) 
Heartbeat CPU 0 instructions: 20000000 cycles: 6371112 heartbeat IPC: 3.11002 cumulative IPC: 3.13917 (Simulation time: 0 hr 1 min 3 sec) 
Heartbeat CPU 0 instructions: 30000003 cycles: 9558226 heartbeat IPC: 3.13764 cumulative IPC: 3.13866 (Simulation time: 0 hr 1 min 35 sec) 
Heartbeat CPU 0 instructions: 40000002 cycles: 12766386 heartbeat IPC: 3.11705 cumulative IPC: 3.13323 (Simulation time: 0 hr 2 min 7 sec) 
Heartbeat CPU 0 instructions: 50000003 cycles: 15986039 heartbeat IPC: 3.10593 cumulative IPC: 3.12773 (Simulation time: 0 hr 2 min 42 sec) 

Warmup complete CPU 0 instructions: 50000003 cycles: 15986039 (Simulation time: 0 hr 2 min 42 sec) 

Heartbeat CPU 0 instructions: 60000000 cycles: 23042911 heartbeat IPC: 1.41706 cumulative IPC: 1.41706 (Simulation time: 0 hr 3 min 20 sec) 
Heartbeat CPU 0 instructions: 70000001 cycles: 29826328 heartbeat IPC: 1.47418 cumulative IPC: 1.44506 (Simulation time: 0 hr 4 min 1 sec) 
Heartbeat CPU 0 instructions: 80000002 cycles: 36580377 heartbeat IPC: 1.48059 cumulative IPC: 1.45671 (Simulation time: 0 hr 4 min 39 sec) 
Heartbeat CPU 0 instructions: 90000002 cycles: 43655251 heartbeat IPC: 1.41345 cumulative IPC: 1.44565 (Simulation time: 0 hr 5 min 19 sec) 
Heartbeat CPU 0 instructions: 100000003 cycles: 50334440 heartbeat IPC: 1.49719 cumulative IPC: 1.45567 (Simulation time: 0 hr 5 min 58 sec) 
Finished CPU 0 instructions: 50000000 cycles: 34348401 cumulative IPC: 1.45567 (Simulation time: 0 hr 5 min 58 sec) 

ChampSim completed all CPUs

Region of Interest Statistics

CPU 0 cumulative IPC: 1.45567 instructions: 50000000 cycles: 34348401
L1D TOTAL     ACCESS:   17594598  HIT:   17083545  MISS:     511053
L1D LOAD      ACCESS:    6433676  HIT:    6228800  MISS:     204876
L1D RFO       ACCESS:    5051899  HIT:    4969212  MISS:      82687
L1D PREFETCH  ACCESS:    6109023  HIT:    5885533  MISS:     223490
L1D WRITEBACK ACCESS:          0  HIT:          0  MISS:          0
L1D PREFETCH  REQUESTED:    6462670  ISSUED:    6285692  USEFUL:     131831  USELESS:      91787
L1D AVERAGE MISS LATENCY: 96.4187 cycles
L1I TOTAL     ACCESS:   36210529  HIT:   35523769  MISS:     686760
L1I LOAD      ACCESS:    8248822  HIT:    8228681  MISS:      20141
L1I RFO       ACCESS:          0  HIT:          0  MISS:          0
L1I PREFETCH  ACCESS:   27961707  HIT:   27295088  MISS:     666619
L1I WRITEBACK ACCESS:          0  HIT:          0  MISS:          0
L1I PREFETCH  REQUESTED:   36577772  ISSUED:   36577772  USEFUL:     515377  USELESS:     151323
L1I AVERAGE MISS LATENCY: 41.0021 cycles
L2C TOTAL     ACCESS:    1792520  HIT:    1311125  MISS:     481395
L2C LOAD      ACCESS:     176582  HIT:      85504  MISS:      91078
L2C RFO       ACCESS:      80903  HIT:      10167  MISS:      70736
L2C PREFETCH  ACCESS:    1327180  HIT:    1008153  MISS:     319027
L2C WRITEBACK ACCESS:     207855  HIT:     207301  MISS:        554
L2C PREFETCH  REQUESTED:    1804882  ISSUED:    1800976  USEFUL:      21468  USELESS:     297512
L2C AVERAGE MISS LATENCY: 130.706 cycles
LLC TOTAL     ACCESS:    1162620  HIT:     828485  MISS:     334135
LLC LOAD      ACCESS:      90958  HIT:      60747  MISS:      30211
LLC RFO       ACCESS:      70735  HIT:       6782  MISS:      63953
LLC PREFETCH  ACCESS:     833062  HIT:     593368  MISS:     239694
LLC WRITEBACK ACCESS:     167865  HIT:     167588  MISS:        277
LLC PREFETCH  REQUESTED:          0  ISSUED:          0  USEFUL:      25465  USELESS:     209323
LLC AVERAGE MISS LATENCY: 237.277 cycles
Major fault: 0 Minor fault: 16707
CPU 0 L1I EPI prefetcher final stats
CPU 0 L1D next line prefetcher final stats

DRAM Statistics
 CHANNEL 0
 RQ ROW_BUFFER_HIT:     104080  ROW_BUFFER_MISS:     229741
 DBUS_CONGESTED:     231045
 WQ ROW_BUFFER_HIT:      35106  ROW_BUFFER_MISS:     123961  FULL:          0

 AVG_CONGESTED_CYCLE: 6

CPU 0 Branch Prediction Accuracy: 99.5889% MPKI: 0.70108 Average ROB Occupancy at Mispredict: 117.98

Branch types
NOT_BRANCH: 41473584 82.9472%
BRANCH_DIRECT_JUMP: 347941 0.695882%
BRANCH_INDIRECT: 148212 0.296424%
BRANCH_CONDITIONAL: 6817277 13.6346%
BRANCH_DIRECT_CALL: 570725 1.14145%
BRANCH_INDIRECT_CALL: 25133 0.050266%
BRANCH_RETURN: 617123 1.23425%
BRANCH_OTHER: 0 0%

