Initialize SIGNATURE TABLE
ST_SET: 1
ST_WAY: 256
ST_TAG_BIT: 16
ST_TAG_MASK: ffff

Initialize PATTERN TABLE
PT_SET: 512
PT_WAY: 4
SIG_DELTA_BIT: 7
C_SIG_BIT: 4
C_DELTA_BIT: 4

Initialize PREFETCH FILTER
FILTER_SET: 1024

*** ChampSim Multicore Out-of-Order Simulator ***

Warmup Instructions: 50000000
Simulation Instructions: 50000000
Number of CPUs: 1
LLC sets: 2048
LLC ways: 16
Off-chip DRAM Size: 4096 MB Channels: 1 Width: 64-bit Data Rate: 3200 MT/s

CPU 0 runs /home/sankara2004/240C/hw1/ChampSim_2/ChampSim/ipc1_public/server_032.champsimtrace.xz
CPU 0 EPI prefetcher
CPU 0 L1D next line prefetcher
Heartbeat CPU 0 instructions: 10000002 cycles: 3522439 heartbeat IPC: 2.83894 cumulative IPC: 2.83894 (Simulation time: 0 hr 0 min 37 sec) 
Heartbeat CPU 0 instructions: 20000003 cycles: 7045239 heartbeat IPC: 2.83865 cumulative IPC: 2.8388 (Simulation time: 0 hr 1 min 13 sec) 
Heartbeat CPU 0 instructions: 30000000 cycles: 10569036 heartbeat IPC: 2.83785 cumulative IPC: 2.83848 (Simulation time: 0 hr 1 min 49 sec) 
Heartbeat CPU 0 instructions: 40000003 cycles: 14093829 heartbeat IPC: 2.83705 cumulative IPC: 2.83812 (Simulation time: 0 hr 2 min 28 sec) 
Heartbeat CPU 0 instructions: 50000000 cycles: 17617927 heartbeat IPC: 2.8376 cumulative IPC: 2.83802 (Simulation time: 0 hr 3 min 7 sec) 

Warmup complete CPU 0 instructions: 50000004 cycles: 17617928 (Simulation time: 0 hr 3 min 7 sec) 

Heartbeat CPU 0 instructions: 60000002 cycles: 24352935 heartbeat IPC: 1.48478 cumulative IPC: 1.48478 (Simulation time: 0 hr 3 min 50 sec) 
Heartbeat CPU 0 instructions: 70000000 cycles: 31089874 heartbeat IPC: 1.48435 cumulative IPC: 1.48457 (Simulation time: 0 hr 4 min 34 sec) 
*** Reached end of trace for Core: 0 Repeating trace: /home/sankara2004/240C/hw1/ChampSim_2/ChampSim/ipc1_public/server_032.champsimtrace.xz
Heartbeat CPU 0 instructions: 80000003 cycles: 37818396 heartbeat IPC: 1.48621 cumulative IPC: 1.48511 (Simulation time: 0 hr 5 min 17 sec) 
Heartbeat CPU 0 instructions: 90000002 cycles: 44520891 heartbeat IPC: 1.49198 cumulative IPC: 1.48682 (Simulation time: 0 hr 6 min 1 sec) 
Heartbeat CPU 0 instructions: 100000001 cycles: 51233495 heartbeat IPC: 1.48973 cumulative IPC: 1.48741 (Simulation time: 0 hr 6 min 45 sec) 
Finished CPU 0 instructions: 50000002 cycles: 33615569 cumulative IPC: 1.48741 (Simulation time: 0 hr 6 min 45 sec) 

ChampSim completed all CPUs

Region of Interest Statistics

CPU 0 cumulative IPC: 1.48741 instructions: 50000002 cycles: 33615569
L1D TOTAL     ACCESS:   19800308  HIT:   17972275  MISS:    1828033
L1D LOAD      ACCESS:    6765410  HIT:    5971003  MISS:     794407
L1D RFO       ACCESS:    6552605  HIT:    6258823  MISS:     293782
L1D PREFETCH  ACCESS:    6482293  HIT:    5742449  MISS:     739844
L1D WRITEBACK ACCESS:          0  HIT:          0  MISS:          0
L1D PREFETCH  REQUESTED:    6815379  ISSUED:    6676966  USEFUL:     169918  USELESS:     569924
L1D AVERAGE MISS LATENCY: 19.201 cycles
L1I TOTAL     ACCESS:   27904175  HIT:   24156954  MISS:    3747221
L1I LOAD      ACCESS:    9696128  HIT:    9642286  MISS:      53842
L1I RFO       ACCESS:          0  HIT:          0  MISS:          0
L1I PREFETCH  ACCESS:   18208047  HIT:   14514668  MISS:    3693379
L1I WRITEBACK ACCESS:          0  HIT:          0  MISS:          0
L1I PREFETCH  REQUESTED:   22122466  ISSUED:   22122466  USEFUL:    3169055  USELESS:     524314
L1I AVERAGE MISS LATENCY: 17.6056 cycles
L2C TOTAL     ACCESS:    7875688  HIT:    7281358  MISS:     594330
L2C LOAD      ACCESS:     782616  HIT:     690974  MISS:      91642
L2C RFO       ACCESS:     292340  HIT:     242252  MISS:      50088
L2C PREFETCH  ACCESS:    6164339  HIT:    5721454  MISS:     442885
L2C WRITEBACK ACCESS:     636393  HIT:     626678  MISS:       9715
L2C PREFETCH  REQUESTED:    6215574  ISSUED:    6202239  USEFUL:       5599  USELESS:     437091
L2C AVERAGE MISS LATENCY: 33.0409 cycles
LLC TOTAL     ACCESS:    2162183  HIT:    2155855  MISS:       6328
LLC LOAD      ACCESS:      91636  HIT:      91150  MISS:        486
LLC RFO       ACCESS:      50088  HIT:      50088  MISS:          0
LLC PREFETCH  ACCESS:    1923352  HIT:    1917535  MISS:       5817
LLC WRITEBACK ACCESS:      97107  HIT:      97082  MISS:         25
LLC PREFETCH  REQUESTED:          0  ISSUED:          0  USEFUL:        400  USELESS:       2363
LLC AVERAGE MISS LATENCY: 149.218 cycles
Major fault: 0 Minor fault: 1178
CPU 0 L1I EPI prefetcher final stats
CPU 0 L1D next line prefetcher final stats

DRAM Statistics
 CHANNEL 0
 RQ ROW_BUFFER_HIT:       1589  ROW_BUFFER_MISS:       4714
 DBUS_CONGESTED:        733
 WQ ROW_BUFFER_HIT:          1  ROW_BUFFER_MISS:         13  FULL:          0

 AVG_CONGESTED_CYCLE: 4

CPU 0 Branch Prediction Accuracy: 99.8762% MPKI: 0.2296 Average ROB Occupancy at Mispredict: 190.504

Branch types
NOT_BRANCH: 40726163 81.4523%
BRANCH_DIRECT_JUMP: 508374 1.01675%
BRANCH_INDIRECT: 180051 0.360102%
BRANCH_CONDITIONAL: 5999665 11.9993%
BRANCH_DIRECT_CALL: 1086739 2.17348%
BRANCH_INDIRECT_CALL: 206109 0.412218%
BRANCH_RETURN: 1292837 2.58567%
BRANCH_OTHER: 0 0%

