Initialize SIGNATURE TABLE
ST_SET: 1
ST_WAY: 256
ST_TAG_BIT: 16
ST_TAG_MASK: ffff

Initialize PATTERN TABLE
PT_SET: 512
PT_WAY: 4
SIG_DELTA_BIT: 7
C_SIG_BIT: 4
C_DELTA_BIT: 4

Initialize PREFETCH FILTER
FILTER_SET: 1024

*** ChampSim Multicore Out-of-Order Simulator ***

Warmup Instructions: 50000000
Simulation Instructions: 50000000
Number of CPUs: 1
LLC sets: 2048
LLC ways: 16
Off-chip DRAM Size: 4096 MB Channels: 1 Width: 64-bit Data Rate: 3200 MT/s

CPU 0 runs /home/sankara2004/240C/hw1/ChampSim_2/ChampSim/ipc1_public/server_031.champsimtrace.xz
CPU 0 EPI prefetcher
CPU 0 L1D next line prefetcher
Heartbeat CPU 0 instructions: 10000003 cycles: 3519575 heartbeat IPC: 2.84125 cumulative IPC: 2.84125 (Simulation time: 0 hr 6 min 30 sec) 
Heartbeat CPU 0 instructions: 20000002 cycles: 7038823 heartbeat IPC: 2.84152 cumulative IPC: 2.84138 (Simulation time: 0 hr 13 min 0 sec) 
Heartbeat CPU 0 instructions: 30000002 cycles: 10557887 heartbeat IPC: 2.84166 cumulative IPC: 2.84148 (Simulation time: 0 hr 19 min 33 sec) 
Heartbeat CPU 0 instructions: 40000003 cycles: 14072600 heartbeat IPC: 2.84518 cumulative IPC: 2.8424 (Simulation time: 0 hr 26 min 4 sec) 
Heartbeat CPU 0 instructions: 50000001 cycles: 17588957 heartbeat IPC: 2.84385 cumulative IPC: 2.84269 (Simulation time: 0 hr 32 min 35 sec) 

Warmup complete CPU 0 instructions: 50000001 cycles: 17588957 (Simulation time: 0 hr 32 min 35 sec) 

Heartbeat CPU 0 instructions: 60000001 cycles: 25040163 heartbeat IPC: 1.34206 cumulative IPC: 1.34206 (Simulation time: 0 hr 40 min 52 sec) 
Heartbeat CPU 0 instructions: 70000002 cycles: 32546587 heartbeat IPC: 1.33219 cumulative IPC: 1.33711 (Simulation time: 0 hr 49 min 16 sec) 
*** Reached end of trace for Core: 0 Repeating trace: /home/sankara2004/240C/hw1/ChampSim_2/ChampSim/ipc1_public/server_031.champsimtrace.xz
Heartbeat CPU 0 instructions: 80000000 cycles: 39914565 heartbeat IPC: 1.35722 cumulative IPC: 1.34375 (Simulation time: 0 hr 57 min 45 sec) 
Heartbeat CPU 0 instructions: 90000003 cycles: 47313253 heartbeat IPC: 1.35159 cumulative IPC: 1.3457 (Simulation time: 1 hr 6 min 0 sec) 
Heartbeat CPU 0 instructions: 100000000 cycles: 54671742 heartbeat IPC: 1.35897 cumulative IPC: 1.34833 (Simulation time: 1 hr 14 min 2 sec) 
Finished CPU 0 instructions: 50000000 cycles: 37082787 cumulative IPC: 1.34833 (Simulation time: 1 hr 14 min 2 sec) 

ChampSim completed all CPUs

Region of Interest Statistics

CPU 0 cumulative IPC: 1.34833 instructions: 50000000 cycles: 37082787
L1D TOTAL     ACCESS:   19506553  HIT:   17602277  MISS:    1904276
L1D LOAD      ACCESS:    6762071  HIT:    5888384  MISS:     873687
L1D RFO       ACCESS:    6324877  HIT:    6033646  MISS:     291231
L1D PREFETCH  ACCESS:    6419605  HIT:    5680247  MISS:     739358
L1D WRITEBACK ACCESS:          0  HIT:          0  MISS:          0
L1D PREFETCH  REQUESTED:    6822222  ISSUED:    6708604  USEFUL:     173615  USELESS:     565746
L1D AVERAGE MISS LATENCY: 22.4398 cycles
L1I TOTAL     ACCESS:   30061013  HIT:   26533939  MISS:    3527074
L1I LOAD      ACCESS:    9687396  HIT:    9631109  MISS:      56287
L1I RFO       ACCESS:          0  HIT:          0  MISS:          0
L1I PREFETCH  ACCESS:   20373617  HIT:   16902830  MISS:    3470787
L1I WRITEBACK ACCESS:          0  HIT:          0  MISS:          0
L1I PREFETCH  REQUESTED:   25612528  ISSUED:   25612528  USEFUL:    2997644  USELESS:     473152
L1I AVERAGE MISS LATENCY: 18.3087 cycles
L2C TOTAL     ACCESS:    7716816  HIT:    7102195  MISS:     614621
L2C LOAD      ACCESS:     858188  HIT:     742378  MISS:     115810
L2C RFO       ACCESS:     289226  HIT:     247287  MISS:      41939
L2C PREFETCH  ACCESS:    5952475  HIT:    5496642  MISS:     455833
L2C WRITEBACK ACCESS:     616927  HIT:     615888  MISS:       1039
L2C PREFETCH  REQUESTED:    6756474  ISSUED:    6733101  USEFUL:       6056  USELESS:     449028
L2C AVERAGE MISS LATENCY: 45.1397 cycles
LLC TOTAL     ACCESS:    2504290  HIT:    2417517  MISS:      86773
LLC LOAD      ACCESS:     115759  HIT:      96894  MISS:      18865
LLC RFO       ACCESS:      41938  HIT:      37670  MISS:       4268
LLC PREFETCH  ACCESS:    2269550  HIT:    2206502  MISS:      63048
LLC WRITEBACK ACCESS:      77043  HIT:      76451  MISS:        592
LLC PREFETCH  REQUESTED:          0  ISSUED:          0  USEFUL:       2793  USELESS:      59413
LLC AVERAGE MISS LATENCY: 160.545 cycles
Major fault: 0 Minor fault: 6042
CPU 0 L1I EPI prefetcher final stats
CPU 0 L1D next line prefetcher final stats

DRAM Statistics
 CHANNEL 0
 RQ ROW_BUFFER_HIT:      23147  ROW_BUFFER_MISS:      63029
 DBUS_CONGESTED:      35900
 WQ ROW_BUFFER_HIT:        831  ROW_BUFFER_MISS:       5270  FULL:          0

 AVG_CONGESTED_CYCLE: 5

CPU 0 Branch Prediction Accuracy: 99.6894% MPKI: 0.58048 Average ROB Occupancy at Mispredict: 145.101

Branch types
NOT_BRANCH: 40655652 81.3113%
BRANCH_DIRECT_JUMP: 546483 1.09297%
BRANCH_INDIRECT: 172433 0.344866%
BRANCH_CONDITIONAL: 6207593 12.4152%
BRANCH_DIRECT_CALL: 1018497 2.03699%
BRANCH_INDIRECT_CALL: 190373 0.380746%
BRANCH_RETURN: 1208855 2.41771%
BRANCH_OTHER: 0 0%

