Initialize SIGNATURE TABLE
ST_SET: 1
ST_WAY: 256
ST_TAG_BIT: 16
ST_TAG_MASK: ffff

Initialize PATTERN TABLE
PT_SET: 512
PT_WAY: 4
SIG_DELTA_BIT: 7
C_SIG_BIT: 4
C_DELTA_BIT: 4

Initialize PREFETCH FILTER
FILTER_SET: 1024

*** ChampSim Multicore Out-of-Order Simulator ***

Warmup Instructions: 50000000
Simulation Instructions: 50000000
Number of CPUs: 1
LLC sets: 2048
LLC ways: 16
Off-chip DRAM Size: 4096 MB Channels: 1 Width: 64-bit Data Rate: 3200 MT/s

CPU 0 runs /home/sankara2004/240C/hw1/ChampSim_2/ChampSim/ipc1_public/server_032.champsimtrace.xz
LHT KB: 126.25
SCC KB: 1.56
Total KB: 127.81
CPU 0 L1D next line prefetcher
Heartbeat CPU 0 instructions: 10000002 cycles: 3528206 heartbeat IPC: 2.8343 cumulative IPC: 2.8343 (Simulation time: 0 hr 5 min 58 sec) 
Heartbeat CPU 0 instructions: 20000003 cycles: 7057970 heartbeat IPC: 2.83305 cumulative IPC: 2.83368 (Simulation time: 0 hr 11 min 48 sec) 
Heartbeat CPU 0 instructions: 30000000 cycles: 10586959 heartbeat IPC: 2.83367 cumulative IPC: 2.83367 (Simulation time: 0 hr 17 min 42 sec) 
Heartbeat CPU 0 instructions: 40000003 cycles: 14117117 heartbeat IPC: 2.83274 cumulative IPC: 2.83344 (Simulation time: 0 hr 23 min 32 sec) 
Heartbeat CPU 0 instructions: 50000000 cycles: 17646655 heartbeat IPC: 2.83323 cumulative IPC: 2.8334 (Simulation time: 0 hr 29 min 20 sec) 

Warmup complete CPU 0 instructions: 50000004 cycles: 17646656 (Simulation time: 0 hr 29 min 20 sec) 

Heartbeat CPU 0 instructions: 60000002 cycles: 24409626 heartbeat IPC: 1.47864 cumulative IPC: 1.47864 (Simulation time: 0 hr 37 min 1 sec) 
Heartbeat CPU 0 instructions: 70000002 cycles: 31168720 heartbeat IPC: 1.47949 cumulative IPC: 1.47906 (Simulation time: 0 hr 44 min 52 sec) 
*** Reached end of trace for Core: 0 Repeating trace: /home/sankara2004/240C/hw1/ChampSim_2/ChampSim/ipc1_public/server_032.champsimtrace.xz
Heartbeat CPU 0 instructions: 80000003 cycles: 37922570 heartbeat IPC: 1.48064 cumulative IPC: 1.47959 (Simulation time: 0 hr 52 min 44 sec) 
Heartbeat CPU 0 instructions: 90000002 cycles: 44643031 heartbeat IPC: 1.48799 cumulative IPC: 1.48168 (Simulation time: 1 hr 0 min 22 sec) 
Heartbeat CPU 0 instructions: 100000001 cycles: 51379194 heartbeat IPC: 1.48452 cumulative IPC: 1.48225 (Simulation time: 1 hr 7 min 41 sec) 
Finished CPU 0 instructions: 50000002 cycles: 33732540 cumulative IPC: 1.48225 (Simulation time: 1 hr 7 min 41 sec) 

ChampSim completed all CPUs

Region of Interest Statistics

CPU 0 cumulative IPC: 1.48225 instructions: 50000002 cycles: 33732540
L1D TOTAL     ACCESS:   19915333  HIT:   18087253  MISS:    1828080
L1D LOAD      ACCESS:    6815129  HIT:    6021841  MISS:     793288
L1D RFO       ACCESS:    6559919  HIT:    6264872  MISS:     295047
L1D PREFETCH  ACCESS:    6540285  HIT:    5800540  MISS:     739745
L1D WRITEBACK ACCESS:          0  HIT:          0  MISS:          0
L1D PREFETCH  REQUESTED:    6860988  ISSUED:    6726433  USEFUL:     170472  USELESS:     569272
L1D AVERAGE MISS LATENCY: 18.5438 cycles
L1I TOTAL     ACCESS:   26524928  HIT:   21074310  MISS:    5450618
L1I LOAD      ACCESS:    9582321  HIT:    9072208  MISS:     510113
L1I RFO       ACCESS:          0  HIT:          0  MISS:          0
L1I PREFETCH  ACCESS:   16942607  HIT:   12002102  MISS:    4940505
L1I WRITEBACK ACCESS:          0  HIT:          0  MISS:          0
L1I PREFETCH  REQUESTED:   19640826  ISSUED:   19640826  USEFUL:    2841008  USELESS:    2099469
L1I AVERAGE MISS LATENCY: 14.7749 cycles
L2C TOTAL     ACCESS:   10276454  HIT:    9792320  MISS:     484134
L2C LOAD      ACCESS:     868729  HIT:     774708  MISS:      94021
L2C RFO       ACCESS:     292628  HIT:     260058  MISS:      32570
L2C PREFETCH  ACCESS:    8478768  HIT:    8127019  MISS:     351749
L2C WRITEBACK ACCESS:     636329  HIT:     630535  MISS:       5794
L2C PREFETCH  REQUESTED:    5275660  ISSUED:    5270317  USEFUL:       5129  USELESS:     346536
L2C AVERAGE MISS LATENCY: 32.0402 cycles
LLC TOTAL     ACCESS:    1509320  HIT:    1504212  MISS:       5108
LLC LOAD      ACCESS:      94021  HIT:      93593  MISS:        428
LLC RFO       ACCESS:      32570  HIT:      32570  MISS:          0
LLC PREFETCH  ACCESS:    1312156  HIT:    1307489  MISS:       4667
LLC WRITEBACK ACCESS:      70573  HIT:      70560  MISS:         13
LLC PREFETCH  REQUESTED:          0  ISSUED:          0  USEFUL:        351  USELESS:       1555
LLC AVERAGE MISS LATENCY: 145.87 cycles
Major fault: 0 Minor fault: 1191
CPU 0 L1D next line prefetcher final stats

DRAM Statistics
 CHANNEL 0
 RQ ROW_BUFFER_HIT:       1383  ROW_BUFFER_MISS:       3712
 DBUS_CONGESTED:        471
 WQ ROW_BUFFER_HIT:          1  ROW_BUFFER_MISS:         12  FULL:          0

 AVG_CONGESTED_CYCLE: 4

CPU 0 Branch Prediction Accuracy: 99.8762% MPKI: 0.2296 Average ROB Occupancy at Mispredict: 183.459

Branch types
NOT_BRANCH: 40726129 81.4523%
BRANCH_DIRECT_JUMP: 508373 1.01675%
BRANCH_INDIRECT: 180051 0.360102%
BRANCH_CONDITIONAL: 5999657 11.9993%
BRANCH_DIRECT_CALL: 1086739 2.17348%
BRANCH_INDIRECT_CALL: 206109 0.412218%
BRANCH_RETURN: 1292837 2.58567%
BRANCH_OTHER: 0 0%

