Initialize SIGNATURE TABLE
ST_SET: 1
ST_WAY: 256
ST_TAG_BIT: 16
ST_TAG_MASK: ffff

Initialize PATTERN TABLE
PT_SET: 512
PT_WAY: 4
SIG_DELTA_BIT: 7
C_SIG_BIT: 4
C_DELTA_BIT: 4

Initialize PREFETCH FILTER
FILTER_SET: 1024

*** ChampSim Multicore Out-of-Order Simulator ***

Warmup Instructions: 50000000
Simulation Instructions: 50000000
Number of CPUs: 1
LLC sets: 2048
LLC ways: 16
Off-chip DRAM Size: 4096 MB Channels: 1 Width: 64-bit Data Rate: 3200 MT/s

CPU 0 runs /home/sankara2004/240C/hw1/ChampSim_2/ChampSim/ipc1_public/server_024.champsimtrace.xz
CPU 0 EPI prefetcher
CPU 0 L1D next line prefetcher
Heartbeat CPU 0 instructions: 10000000 cycles: 3499012 heartbeat IPC: 2.85795 cumulative IPC: 2.85795 (Simulation time: 0 hr 0 min 36 sec) 
Heartbeat CPU 0 instructions: 20000002 cycles: 6990496 heartbeat IPC: 2.86411 cumulative IPC: 2.86103 (Simulation time: 0 hr 1 min 13 sec) 
Heartbeat CPU 0 instructions: 30000000 cycles: 10492446 heartbeat IPC: 2.85555 cumulative IPC: 2.8592 (Simulation time: 0 hr 1 min 48 sec) 
Heartbeat CPU 0 instructions: 40000000 cycles: 13991226 heartbeat IPC: 2.85814 cumulative IPC: 2.85893 (Simulation time: 0 hr 2 min 24 sec) 
Heartbeat CPU 0 instructions: 50000001 cycles: 17480091 heartbeat IPC: 2.86626 cumulative IPC: 2.8604 (Simulation time: 0 hr 2 min 59 sec) 

Warmup complete CPU 0 instructions: 50000001 cycles: 17480091 (Simulation time: 0 hr 2 min 59 sec) 

Heartbeat CPU 0 instructions: 60000003 cycles: 24237167 heartbeat IPC: 1.47993 cumulative IPC: 1.47993 (Simulation time: 0 hr 3 min 41 sec) 
Heartbeat CPU 0 instructions: 70000000 cycles: 31024474 heartbeat IPC: 1.47334 cumulative IPC: 1.47663 (Simulation time: 0 hr 4 min 23 sec) 
*** Reached end of trace for Core: 0 Repeating trace: /home/sankara2004/240C/hw1/ChampSim_2/ChampSim/ipc1_public/server_024.champsimtrace.xz
Heartbeat CPU 0 instructions: 80000003 cycles: 37794128 heartbeat IPC: 1.47718 cumulative IPC: 1.47681 (Simulation time: 0 hr 5 min 6 sec) 
Heartbeat CPU 0 instructions: 90000003 cycles: 44615070 heartbeat IPC: 1.46607 cumulative IPC: 1.47411 (Simulation time: 0 hr 5 min 48 sec) 
Heartbeat CPU 0 instructions: 100000002 cycles: 51398052 heartbeat IPC: 1.47428 cumulative IPC: 1.47415 (Simulation time: 0 hr 6 min 31 sec) 
Finished CPU 0 instructions: 50000001 cycles: 33917961 cumulative IPC: 1.47415 (Simulation time: 0 hr 6 min 31 sec) 

ChampSim completed all CPUs

Region of Interest Statistics

CPU 0 cumulative IPC: 1.47415 instructions: 50000001 cycles: 33917961
L1D TOTAL     ACCESS:   19659871  HIT:   18142358  MISS:    1517513
L1D LOAD      ACCESS:    6920282  HIT:    6239188  MISS:     681094
L1D RFO       ACCESS:    6149632  HIT:    5875940  MISS:     273692
L1D PREFETCH  ACCESS:    6589957  HIT:    6027230  MISS:     562727
L1D WRITEBACK ACCESS:          0  HIT:          0  MISS:          0
L1D PREFETCH  REQUESTED:    6974459  ISSUED:    6852801  USEFUL:     135278  USELESS:     427453
L1D AVERAGE MISS LATENCY: 25.1774 cycles
L1I TOTAL     ACCESS:   28163991  HIT:   25043461  MISS:    3120530
L1I LOAD      ACCESS:    9325367  HIT:    9265898  MISS:      59469
L1I RFO       ACCESS:          0  HIT:          0  MISS:          0
L1I PREFETCH  ACCESS:   18838624  HIT:   15777563  MISS:    3061061
L1I WRITEBACK ACCESS:          0  HIT:          0  MISS:          0
L1I PREFETCH  REQUESTED:   23651061  ISSUED:   23651061  USEFUL:    2499831  USELESS:     561188
L1I AVERAGE MISS LATENCY: 18.8449 cycles
L2C TOTAL     ACCESS:    6389263  HIT:    5683069  MISS:     706194
L2C LOAD      ACCESS:     645024  HIT:     522933  MISS:     122091
L2C RFO       ACCESS:     272189  HIT:     185667  MISS:      86522
L2C PREFETCH  ACCESS:    4951872  HIT:    4457589  MISS:     494283
L2C WRITEBACK ACCESS:     520178  HIT:     516880  MISS:       3298
L2C PREFETCH  REQUESTED:    5554555  ISSUED:    5541530  USEFUL:      14897  USELESS:     478764
L2C AVERAGE MISS LATENCY: 44.0395 cycles
LLC TOTAL     ACCESS:    2430470  HIT:    2373530  MISS:      56940
LLC LOAD      ACCESS:     121822  HIT:     116176  MISS:       5646
LLC RFO       ACCESS:      86507  HIT:      64377  MISS:      22130
LLC PREFETCH  ACCESS:    2082809  HIT:    2053988  MISS:      28821
LLC WRITEBACK ACCESS:     139332  HIT:     138989  MISS:        343
LLC PREFETCH  REQUESTED:          0  ISSUED:          0  USEFUL:       2296  USELESS:      25819
LLC AVERAGE MISS LATENCY: 194.71 cycles
Major fault: 0 Minor fault: 2365
CPU 0 L1I EPI prefetcher final stats
CPU 0 L1D next line prefetcher final stats

DRAM Statistics
 CHANNEL 0
 RQ ROW_BUFFER_HIT:      18693  ROW_BUFFER_MISS:      37884
 DBUS_CONGESTED:      39125
 WQ ROW_BUFFER_HIT:       2881  ROW_BUFFER_MISS:      23194  FULL:          0

 AVG_CONGESTED_CYCLE: 6

CPU 0 Branch Prediction Accuracy: 99.7477% MPKI: 0.46156 Average ROB Occupancy at Mispredict: 175.021

Branch types
NOT_BRANCH: 40853663 81.7073%
BRANCH_DIRECT_JUMP: 566817 1.13363%
BRANCH_INDIRECT: 197171 0.394342%
BRANCH_CONDITIONAL: 6308416 12.6168%
BRANCH_DIRECT_CALL: 876400 1.7528%
BRANCH_INDIRECT_CALL: 160491 0.320982%
BRANCH_RETURN: 1036885 2.07377%
BRANCH_OTHER: 0 0%

