Initialize SIGNATURE TABLE
ST_SET: 1
ST_WAY: 256
ST_TAG_BIT: 16
ST_TAG_MASK: ffff

Initialize PATTERN TABLE
PT_SET: 512
PT_WAY: 4
SIG_DELTA_BIT: 7
C_SIG_BIT: 4
C_DELTA_BIT: 4

Initialize PREFETCH FILTER
FILTER_SET: 1024

*** ChampSim Multicore Out-of-Order Simulator ***

Warmup Instructions: 50000000
Simulation Instructions: 50000000
Number of CPUs: 1
LLC sets: 2048
LLC ways: 16
Off-chip DRAM Size: 4096 MB Channels: 1 Width: 64-bit Data Rate: 3200 MT/s

CPU 0 runs /home/sankara2004/240C/hw1/ChampSim_2/ChampSim/ipc1_public/server_022.champsimtrace.xz
CPU 0 EPI prefetcher
CPU 0 L1D next line prefetcher
Heartbeat CPU 0 instructions: 10000002 cycles: 3623021 heartbeat IPC: 2.76013 cumulative IPC: 2.76013 (Simulation time: 0 hr 6 min 34 sec) 
Heartbeat CPU 0 instructions: 20000001 cycles: 7252477 heartbeat IPC: 2.75523 cumulative IPC: 2.75768 (Simulation time: 0 hr 13 min 8 sec) 
Heartbeat CPU 0 instructions: 30000003 cycles: 10875653 heartbeat IPC: 2.76001 cumulative IPC: 2.75846 (Simulation time: 0 hr 19 min 46 sec) 
Heartbeat CPU 0 instructions: 40000003 cycles: 14505808 heartbeat IPC: 2.7547 cumulative IPC: 2.75752 (Simulation time: 0 hr 26 min 17 sec) 
Heartbeat CPU 0 instructions: 50000002 cycles: 18125919 heartbeat IPC: 2.76235 cumulative IPC: 2.75848 (Simulation time: 0 hr 32 min 49 sec) 

Warmup complete CPU 0 instructions: 50000002 cycles: 18125919 (Simulation time: 0 hr 32 min 49 sec) 

Heartbeat CPU 0 instructions: 60000000 cycles: 35024671 heartbeat IPC: 0.59176 cumulative IPC: 0.59176 (Simulation time: 0 hr 41 min 10 sec) 
Heartbeat CPU 0 instructions: 70000001 cycles: 51913720 heartbeat IPC: 0.5921 cumulative IPC: 0.59193 (Simulation time: 0 hr 49 min 40 sec) 
Heartbeat CPU 0 instructions: 80000001 cycles: 68512378 heartbeat IPC: 0.602458 cumulative IPC: 0.595398 (Simulation time: 0 hr 58 min 39 sec) 
Heartbeat CPU 0 instructions: 90000003 cycles: 85415174 heartbeat IPC: 0.591618 cumulative IPC: 0.594449 (Simulation time: 1 hr 7 min 8 sec) 
Heartbeat CPU 0 instructions: 100000003 cycles: 102107002 heartbeat IPC: 0.599096 cumulative IPC: 0.595372 (Simulation time: 1 hr 15 min 23 sec) 
Finished CPU 0 instructions: 50000001 cycles: 83981083 cumulative IPC: 0.595372 (Simulation time: 1 hr 15 min 23 sec) 

ChampSim completed all CPUs

Region of Interest Statistics

CPU 0 cumulative IPC: 0.595372 instructions: 50000001 cycles: 83981083
L1D TOTAL     ACCESS:   18688400  HIT:   16477712  MISS:    2210688
L1D LOAD      ACCESS:    7050188  HIT:    6342788  MISS:     707400
L1D RFO       ACCESS:    5887039  HIT:    4907541  MISS:     979498
L1D PREFETCH  ACCESS:    5751173  HIT:    5227383  MISS:     523790
L1D WRITEBACK ACCESS:          0  HIT:          0  MISS:          0
L1D PREFETCH  REQUESTED:    7092471  ISSUED:    6883943  USEFUL:     202606  USELESS:     321189
L1D AVERAGE MISS LATENCY: 179.729 cycles
L1I TOTAL     ACCESS:   32330097  HIT:   29686339  MISS:    2643758
L1I LOAD      ACCESS:   10128828  HIT:   10109475  MISS:      19353
L1I RFO       ACCESS:          0  HIT:          0  MISS:          0
L1I PREFETCH  ACCESS:   22201269  HIT:   19576864  MISS:    2624405
L1I WRITEBACK ACCESS:          0  HIT:          0  MISS:          0
L1I PREFETCH  REQUESTED:   25633302  ISSUED:   25633302  USEFUL:    2415828  USELESS:     208565
L1I AVERAGE MISS LATENCY: 18.463 cycles
L2C TOTAL     ACCESS:    7174386  HIT:    5310484  MISS:    1863902
L2C LOAD      ACCESS:     487782  HIT:     244312  MISS:     243470
L2C RFO       ACCESS:     978948  HIT:      19914  MISS:     959034
L2C PREFETCH  ACCESS:    4522507  HIT:    3863303  MISS:     659204
L2C WRITEBACK ACCESS:    1185149  HIT:    1182955  MISS:       2194
L2C PREFETCH  REQUESTED:    4276176  ISSUED:    4270122  USEFUL:      21041  USELESS:     638120
L2C AVERAGE MISS LATENCY: 218.917 cycles
LLC TOTAL     ACCESS:    4078328  HIT:    2691652  MISS:    1386676
LLC LOAD      ACCESS:     243269  HIT:     170882  MISS:      72387
LLC RFO       ACCESS:     959024  HIT:     142216  MISS:     816808
LLC PREFETCH  ACCESS:    1758046  HIT:    1262616  MISS:     495430
LLC WRITEBACK ACCESS:    1117989  HIT:    1115938  MISS:       2051
LLC PREFETCH  REQUESTED:          0  ISSUED:          0  USEFUL:      27600  USELESS:     468159
LLC AVERAGE MISS LATENCY: 293.223 cycles
Major fault: 0 Minor fault: 23507
CPU 0 L1I EPI prefetcher final stats
CPU 0 L1D next line prefetcher final stats

DRAM Statistics
 CHANNEL 0
 RQ ROW_BUFFER_HIT:     398014  ROW_BUFFER_MISS:     986310
 DBUS_CONGESTED:    1437257
 WQ ROW_BUFFER_HIT:     268079  ROW_BUFFER_MISS:     633552  FULL:          0

 AVG_CONGESTED_CYCLE: 6

CPU 0 Branch Prediction Accuracy: 99.8317% MPKI: 0.27564 Average ROB Occupancy at Mispredict: 223.761

Branch types
NOT_BRANCH: 41811174 83.6223%
BRANCH_DIRECT_JUMP: 445742 0.891484%
BRANCH_INDIRECT: 48876 0.097752%
BRANCH_CONDITIONAL: 5859410 11.7188%
BRANCH_DIRECT_CALL: 758268 1.51654%
BRANCH_INDIRECT_CALL: 159103 0.318206%
BRANCH_RETURN: 917373 1.83475%
BRANCH_OTHER: 0 0%

