Initialize SIGNATURE TABLE
ST_SET: 1
ST_WAY: 256
ST_TAG_BIT: 16
ST_TAG_MASK: ffff

Initialize PATTERN TABLE
PT_SET: 512
PT_WAY: 4
SIG_DELTA_BIT: 7
C_SIG_BIT: 4
C_DELTA_BIT: 4

Initialize PREFETCH FILTER
FILTER_SET: 1024

*** ChampSim Multicore Out-of-Order Simulator ***

Warmup Instructions: 50000000
Simulation Instructions: 50000000
Number of CPUs: 1
LLC sets: 2048
LLC ways: 16
Off-chip DRAM Size: 4096 MB Channels: 1 Width: 64-bit Data Rate: 3200 MT/s

CPU 0 runs /home/sankara2004/240C/hw1/ChampSim_2/ChampSim/ipc1_public/server_014.champsimtrace.xz
LHT KB: 126.25
SCC KB: 1.56
Total KB: 127.81
CPU 0 L1D next line prefetcher
Heartbeat CPU 0 instructions: 10000003 cycles: 3519597 heartbeat IPC: 2.84124 cumulative IPC: 2.84124 (Simulation time: 0 hr 5 min 47 sec) 
Heartbeat CPU 0 instructions: 20000000 cycles: 7106754 heartbeat IPC: 2.78772 cumulative IPC: 2.81422 (Simulation time: 0 hr 11 min 32 sec) 
Heartbeat CPU 0 instructions: 30000001 cycles: 10648287 heartbeat IPC: 2.82364 cumulative IPC: 2.81735 (Simulation time: 0 hr 17 min 17 sec) 
Heartbeat CPU 0 instructions: 40000003 cycles: 14196509 heartbeat IPC: 2.81831 cumulative IPC: 2.81759 (Simulation time: 0 hr 22 min 59 sec) 
Heartbeat CPU 0 instructions: 50000000 cycles: 17745183 heartbeat IPC: 2.81795 cumulative IPC: 2.81767 (Simulation time: 0 hr 28 min 36 sec) 

Warmup complete CPU 0 instructions: 50000001 cycles: 17745184 (Simulation time: 0 hr 28 min 36 sec) 

Heartbeat CPU 0 instructions: 60000000 cycles: 24028578 heartbeat IPC: 1.5915 cumulative IPC: 1.5915 (Simulation time: 0 hr 36 min 5 sec) 
Heartbeat CPU 0 instructions: 70000003 cycles: 30319067 heartbeat IPC: 1.5897 cumulative IPC: 1.5906 (Simulation time: 0 hr 43 min 52 sec) 
*** Reached end of trace for Core: 0 Repeating trace: /home/sankara2004/240C/hw1/ChampSim_2/ChampSim/ipc1_public/server_014.champsimtrace.xz
Heartbeat CPU 0 instructions: 80000001 cycles: 36860590 heartbeat IPC: 1.5287 cumulative IPC: 1.56941 (Simulation time: 0 hr 51 min 47 sec) 
Heartbeat CPU 0 instructions: 90000003 cycles: 44379392 heartbeat IPC: 1.33 cumulative IPC: 1.50183 (Simulation time: 0 hr 59 min 26 sec) 
Heartbeat CPU 0 instructions: 100000001 cycles: 50861749 heartbeat IPC: 1.54265 cumulative IPC: 1.50982 (Simulation time: 1 hr 7 min 4 sec) 
Finished CPU 0 instructions: 50000000 cycles: 33116565 cumulative IPC: 1.50982 (Simulation time: 1 hr 7 min 4 sec) 

ChampSim completed all CPUs

Region of Interest Statistics

CPU 0 cumulative IPC: 1.50982 instructions: 50000000 cycles: 33116565
L1D TOTAL     ACCESS:   21629293  HIT:   21558439  MISS:      70854
L1D LOAD      ACCESS:    6674350  HIT:    6647392  MISS:      26958
L1D RFO       ACCESS:    8412922  HIT:    8380851  MISS:      32071
L1D PREFETCH  ACCESS:    6542021  HIT:    6530196  MISS:      11825
L1D WRITEBACK ACCESS:          0  HIT:          0  MISS:          0
L1D PREFETCH  REQUESTED:    6678787  ISSUED:    6569740  USEFUL:       3277  USELESS:       8548
L1D AVERAGE MISS LATENCY: 231.348 cycles
L1I TOTAL     ACCESS:   26524912  HIT:   24630155  MISS:    1894757
L1I LOAD      ACCESS:    9685380  HIT:    9538664  MISS:     146716
L1I RFO       ACCESS:          0  HIT:          0  MISS:          0
L1I PREFETCH  ACCESS:   16839532  HIT:   15091491  MISS:    1748041
L1I WRITEBACK ACCESS:          0  HIT:          0  MISS:          0
L1I PREFETCH  REQUESTED:   18604459  ISSUED:   18604459  USEFUL:    1411724  USELESS:     336309
L1I AVERAGE MISS LATENCY: 14.036 cycles
L2C TOTAL     ACCESS:    2416303  HIT:    2342827  MISS:      73476
L2C LOAD      ACCESS:      37462  HIT:      19615  MISS:      17847
L2C RFO       ACCESS:      32013  HIT:       1043  MISS:      30970
L2C PREFETCH  ACCESS:    2308461  HIT:    2283837  MISS:      24624
L2C WRITEBACK ACCESS:      38367  HIT:      38332  MISS:         35
L2C PREFETCH  REQUESTED:     903984  ISSUED:     903966  USEFUL:       1185  USELESS:      23173
L2C AVERAGE MISS LATENCY: 256.213 cycles
LLC TOTAL     ACCESS:     294106  HIT:     230663  MISS:      63443
LLC LOAD      ACCESS:      16839  HIT:       4441  MISS:      12398
LLC RFO       ACCESS:      30970  HIT:       5039  MISS:      25931
LLC PREFETCH  ACCESS:     211325  HIT:     186294  MISS:      25031
LLC WRITEBACK ACCESS:      34972  HIT:      34889  MISS:         83
LLC PREFETCH  REQUESTED:          0  ISSUED:          0  USEFUL:       3508  USELESS:      23427
LLC AVERAGE MISS LATENCY: 312.676 cycles
Major fault: 0 Minor fault: 1924
CPU 0 L1D next line prefetcher final stats

DRAM Statistics
 CHANNEL 0
 RQ ROW_BUFFER_HIT:      27336  ROW_BUFFER_MISS:      36021
 DBUS_CONGESTED:      64198
 WQ ROW_BUFFER_HIT:       7957  ROW_BUFFER_MISS:      23674  FULL:          0

 AVG_CONGESTED_CYCLE: 6

CPU 0 Branch Prediction Accuracy: 99.7719% MPKI: 0.38824 Average ROB Occupancy at Mispredict: 154.189

Branch types
NOT_BRANCH: 41489011 82.978%
BRANCH_DIRECT_JUMP: 449417 0.898834%
BRANCH_INDIRECT: 2330 0.00466%
BRANCH_CONDITIONAL: 5470016 10.94%
BRANCH_DIRECT_CALL: 1172187 2.34437%
BRANCH_INDIRECT_CALL: 122383 0.244766%
BRANCH_RETURN: 1294554 2.58911%
BRANCH_OTHER: 0 0%

