Initialize SIGNATURE TABLE
ST_SET: 1
ST_WAY: 256
ST_TAG_BIT: 16
ST_TAG_MASK: ffff

Initialize PATTERN TABLE
PT_SET: 512
PT_WAY: 4
SIG_DELTA_BIT: 7
C_SIG_BIT: 4
C_DELTA_BIT: 4

Initialize PREFETCH FILTER
FILTER_SET: 1024

*** ChampSim Multicore Out-of-Order Simulator ***

Warmup Instructions: 50000000
Simulation Instructions: 50000000
Number of CPUs: 1
LLC sets: 2048
LLC ways: 16
Off-chip DRAM Size: 4096 MB Channels: 1 Width: 64-bit Data Rate: 3200 MT/s

CPU 0 runs /home/sankara2004/240C/hw1/ChampSim_2/ChampSim/ipc1_public/server_002.champsimtrace.xz
CPU 0 EPI prefetcher
CPU 0 L1D next line prefetcher
Heartbeat CPU 0 instructions: 10000000 cycles: 3581184 heartbeat IPC: 2.79237 cumulative IPC: 2.79237 (Simulation time: 0 hr 0 min 35 sec) 
Heartbeat CPU 0 instructions: 20000002 cycles: 7170156 heartbeat IPC: 2.78631 cumulative IPC: 2.78934 (Simulation time: 0 hr 1 min 13 sec) 
Heartbeat CPU 0 instructions: 30000000 cycles: 10710899 heartbeat IPC: 2.82427 cumulative IPC: 2.80089 (Simulation time: 0 hr 1 min 52 sec) 
Heartbeat CPU 0 instructions: 40000000 cycles: 14261144 heartbeat IPC: 2.81671 cumulative IPC: 2.80482 (Simulation time: 0 hr 2 min 38 sec) 
Heartbeat CPU 0 instructions: 50000001 cycles: 17808915 heartbeat IPC: 2.81867 cumulative IPC: 2.80758 (Simulation time: 0 hr 3 min 21 sec) 

Warmup complete CPU 0 instructions: 50000001 cycles: 17808915 (Simulation time: 0 hr 3 min 21 sec) 

Heartbeat CPU 0 instructions: 60000000 cycles: 24248522 heartbeat IPC: 1.55289 cumulative IPC: 1.55289 (Simulation time: 0 hr 4 min 10 sec) 
Heartbeat CPU 0 instructions: 70000003 cycles: 30684262 heartbeat IPC: 1.55382 cumulative IPC: 1.55336 (Simulation time: 0 hr 4 min 56 sec) 
Heartbeat CPU 0 instructions: 80000003 cycles: 37122002 heartbeat IPC: 1.55334 cumulative IPC: 1.55335 (Simulation time: 0 hr 5 min 43 sec) 
Heartbeat CPU 0 instructions: 90000002 cycles: 43557663 heartbeat IPC: 1.55384 cumulative IPC: 1.55347 (Simulation time: 0 hr 6 min 28 sec) 
Heartbeat CPU 0 instructions: 100000003 cycles: 49992158 heartbeat IPC: 1.55412 cumulative IPC: 1.5536 (Simulation time: 0 hr 7 min 13 sec) 
Finished CPU 0 instructions: 50000002 cycles: 32183243 cumulative IPC: 1.5536 (Simulation time: 0 hr 7 min 13 sec) 

ChampSim completed all CPUs

Region of Interest Statistics

CPU 0 cumulative IPC: 1.5536 instructions: 50000002 cycles: 32183243
L1D TOTAL     ACCESS:   21522881  HIT:   21522072  MISS:        809
L1D LOAD      ACCESS:    6601087  HIT:    6600711  MISS:        376
L1D RFO       ACCESS:    8433017  HIT:    8432905  MISS:        112
L1D PREFETCH  ACCESS:    6488777  HIT:    6488456  MISS:        321
L1D WRITEBACK ACCESS:          0  HIT:          0  MISS:          0
L1D PREFETCH  REQUESTED:    6601139  ISSUED:    6496148  USEFUL:         92  USELESS:        231
L1D AVERAGE MISS LATENCY: 34.1372 cycles
L1I TOTAL     ACCESS:   47545812  HIT:   45917986  MISS:    1627826
L1I LOAD      ACCESS:    9831142  HIT:    9768833  MISS:      62309
L1I RFO       ACCESS:          0  HIT:          0  MISS:          0
L1I PREFETCH  ACCESS:   37714670  HIT:   36149153  MISS:    1565517
L1I WRITEBACK ACCESS:          0  HIT:          0  MISS:          0
L1I PREFETCH  REQUESTED:   47124743  ISSUED:   47124743  USEFUL:    1136198  USELESS:     429368
L1I AVERAGE MISS LATENCY: 14.1479 cycles
L2C TOTAL     ACCESS:    2092750  HIT:    2092419  MISS:        331
L2C LOAD      ACCESS:      52315  HIT:      52243  MISS:         72
L2C RFO       ACCESS:        112  HIT:        110  MISS:          2
L2C PREFETCH  ACCESS:    2039987  HIT:    2039733  MISS:        254
L2C WRITEBACK ACCESS:        336  HIT:        333  MISS:          3
L2C PREFETCH  REQUESTED:     843767  ISSUED:     843753  USEFUL:         60  USELESS:        133
L2C AVERAGE MISS LATENCY: 82.8671 cycles
LLC TOTAL     ACCESS:     136313  HIT:     135728  MISS:        585
LLC LOAD      ACCESS:         72  HIT:         58  MISS:         14
LLC RFO       ACCESS:          2  HIT:          0  MISS:          2
LLC PREFETCH  ACCESS:     136130  HIT:     135565  MISS:        565
LLC WRITEBACK ACCESS:        109  HIT:        105  MISS:          4
LLC PREFETCH  REQUESTED:          0  ISSUED:          0  USEFUL:          9  USELESS:        164
LLC AVERAGE MISS LATENCY: 266.73 cycles
Major fault: 0 Minor fault: 1867
CPU 0 L1I EPI prefetcher final stats
CPU 0 L1D next line prefetcher final stats

DRAM Statistics
 CHANNEL 0
 RQ ROW_BUFFER_HIT:        119  ROW_BUFFER_MISS:        462
 DBUS_CONGESTED:        333
 WQ ROW_BUFFER_HIT:         73  ROW_BUFFER_MISS:        304  FULL:          0

 AVG_CONGESTED_CYCLE: 6

CPU 0 Branch Prediction Accuracy: 99.8789% MPKI: 0.20388 Average ROB Occupancy at Mispredict: 263.672

Branch types
NOT_BRANCH: 41580695 83.1614%
BRANCH_DIRECT_JUMP: 461630 0.92326%
BRANCH_INDIRECT: 0 0%
BRANCH_CONDITIONAL: 5376437 10.7529%
BRANCH_DIRECT_CALL: 1175775 2.35155%
BRANCH_INDIRECT_CALL: 114840 0.22968%
BRANCH_RETURN: 1290625 2.58125%
BRANCH_OTHER: 0 0%

