Initialize SIGNATURE TABLE
ST_SET: 1
ST_WAY: 256
ST_TAG_BIT: 16
ST_TAG_MASK: ffff

Initialize PATTERN TABLE
PT_SET: 512
PT_WAY: 4
SIG_DELTA_BIT: 7
C_SIG_BIT: 4
C_DELTA_BIT: 4

Initialize PREFETCH FILTER
FILTER_SET: 1024

*** ChampSim Multicore Out-of-Order Simulator ***

Warmup Instructions: 50000000
Simulation Instructions: 50000000
Number of CPUs: 1
LLC sets: 2048
LLC ways: 16
Off-chip DRAM Size: 4096 MB Channels: 1 Width: 64-bit Data Rate: 3200 MT/s

CPU 0 runs /home/sankara2004/240C/hw1/ChampSim_2/ChampSim/ipc1_public/server_009.champsimtrace.xz
CPU 0 EPI prefetcher
CPU 0 L1D next line prefetcher
Heartbeat CPU 0 instructions: 10000003 cycles: 3200218 heartbeat IPC: 3.12479 cumulative IPC: 3.12479 (Simulation time: 0 hr 0 min 35 sec) 
Heartbeat CPU 0 instructions: 20000001 cycles: 6393390 heartbeat IPC: 3.13168 cumulative IPC: 3.12823 (Simulation time: 0 hr 1 min 11 sec) 
Heartbeat CPU 0 instructions: 30000002 cycles: 9600964 heartbeat IPC: 3.11762 cumulative IPC: 3.12469 (Simulation time: 0 hr 1 min 45 sec) 
Heartbeat CPU 0 instructions: 40000003 cycles: 12805467 heartbeat IPC: 3.12061 cumulative IPC: 3.12367 (Simulation time: 0 hr 2 min 20 sec) 
Heartbeat CPU 0 instructions: 50000000 cycles: 16066311 heartbeat IPC: 3.06669 cumulative IPC: 3.1121 (Simulation time: 0 hr 2 min 58 sec) 

Warmup complete CPU 0 instructions: 50000004 cycles: 16066312 (Simulation time: 0 hr 2 min 58 sec) 

Heartbeat CPU 0 instructions: 60000002 cycles: 31607145 heartbeat IPC: 0.643466 cumulative IPC: 0.643466 (Simulation time: 0 hr 3 min 59 sec) 
Heartbeat CPU 0 instructions: 70000003 cycles: 52553675 heartbeat IPC: 0.477406 cumulative IPC: 0.548135 (Simulation time: 0 hr 5 min 16 sec) 
Heartbeat CPU 0 instructions: 80000000 cycles: 59536818 heartbeat IPC: 1.43202 cumulative IPC: 0.690123 (Simulation time: 0 hr 5 min 55 sec) 
Heartbeat CPU 0 instructions: 90000001 cycles: 66675521 heartbeat IPC: 1.40081 cumulative IPC: 0.79037 (Simulation time: 0 hr 6 min 36 sec) 
Heartbeat CPU 0 instructions: 100000003 cycles: 73708174 heartbeat IPC: 1.42194 cumulative IPC: 0.867425 (Simulation time: 0 hr 7 min 18 sec) 
Finished CPU 0 instructions: 50000003 cycles: 57641863 cumulative IPC: 0.867425 (Simulation time: 0 hr 7 min 18 sec) 

ChampSim completed all CPUs

Region of Interest Statistics

CPU 0 cumulative IPC: 0.867425 instructions: 50000003 cycles: 57641863
L1D TOTAL     ACCESS:   21580455  HIT:   17000948  MISS:    4579507
L1D LOAD      ACCESS:    8606752  HIT:    6326057  MISS:    2280695
L1D RFO       ACCESS:    4579630  HIT:    4475250  MISS:     104380
L1D PREFETCH  ACCESS:    8394073  HIT:    6199641  MISS:    2194432
L1D WRITEBACK ACCESS:          0  HIT:          0  MISS:          0
L1D PREFETCH  REQUESTED:    8639074  ISSUED:    8542146  USEFUL:     105960  USELESS:    2088471
L1D AVERAGE MISS LATENCY: 20.3063 cycles
L1I TOTAL     ACCESS:   42475659  HIT:   40960594  MISS:    1515065
L1I LOAD      ACCESS:   10775437  HIT:   10733750  MISS:      41687
L1I RFO       ACCESS:          0  HIT:          0  MISS:          0
L1I PREFETCH  ACCESS:   31700222  HIT:   30226844  MISS:    1473378
L1I WRITEBACK ACCESS:          0  HIT:          0  MISS:          0
L1I PREFETCH  REQUESTED:   44867398  ISSUED:   44867398  USEFUL:    1060862  USELESS:     412540
L1I AVERAGE MISS LATENCY: 32.9927 cycles
L2C TOTAL     ACCESS:    7744176  HIT:    6699809  MISS:    1044367
L2C LOAD      ACCESS:    2282395  HIT:    2074305  MISS:     208090
L2C RFO       ACCESS:     103450  HIT:      63637  MISS:      39813
L2C PREFETCH  ACCESS:    5101466  HIT:    4306332  MISS:     795134
L2C WRITEBACK ACCESS:     256865  HIT:     255535  MISS:       1330
L2C PREFETCH  REQUESTED:    7312277  ISSUED:    7306714  USEFUL:      20373  USELESS:     773384
L2C AVERAGE MISS LATENCY: 48.2617 cycles
LLC TOTAL     ACCESS:    2365058  HIT:    2231494  MISS:     133564
LLC LOAD      ACCESS:     207814  HIT:     189682  MISS:      18132
LLC RFO       ACCESS:      39808  HIT:      30969  MISS:       8839
LLC PREFETCH  ACCESS:    1981111  HIT:    1874800  MISS:     106311
LLC WRITEBACK ACCESS:     136325  HIT:     136043  MISS:        282
LLC PREFETCH  REQUESTED:          0  ISSUED:          0  USEFUL:       9734  USELESS:      93453
LLC AVERAGE MISS LATENCY: 177.049 cycles
Major fault: 0 Minor fault: 6363
CPU 0 L1I EPI prefetcher final stats
CPU 0 L1D next line prefetcher final stats

DRAM Statistics
 CHANNEL 0
 RQ ROW_BUFFER_HIT:      26453  ROW_BUFFER_MISS:     106808
 DBUS_CONGESTED:      60972
 WQ ROW_BUFFER_HIT:       8728  ROW_BUFFER_MISS:      37789  FULL:          0

 AVG_CONGESTED_CYCLE: 5

CPU 0 Branch Prediction Accuracy: 99.4713% MPKI: 1.11484 Average ROB Occupancy at Mispredict: 122.738

Branch types
NOT_BRANCH: 39456615 78.9132%
BRANCH_DIRECT_JUMP: 445350 0.8907%
BRANCH_INDIRECT: 131149 0.262298%
BRANCH_CONDITIONAL: 8130196 16.2604%
BRANCH_DIRECT_CALL: 732485 1.46497%
BRANCH_INDIRECT_CALL: 172369 0.344738%
BRANCH_RETURN: 931558 1.86312%
BRANCH_OTHER: 0 0%

