Initialize SIGNATURE TABLE
ST_SET: 1
ST_WAY: 256
ST_TAG_BIT: 16
ST_TAG_MASK: ffff

Initialize PATTERN TABLE
PT_SET: 512
PT_WAY: 4
SIG_DELTA_BIT: 7
C_SIG_BIT: 4
C_DELTA_BIT: 4

Initialize PREFETCH FILTER
FILTER_SET: 1024

*** ChampSim Multicore Out-of-Order Simulator ***

Warmup Instructions: 50000000
Simulation Instructions: 50000000
Number of CPUs: 1
LLC sets: 2048
LLC ways: 16
Off-chip DRAM Size: 4096 MB Channels: 1 Width: 64-bit Data Rate: 3200 MT/s

CPU 0 runs /home/sankara2004/240C/hw1/ChampSim_2/ChampSim/ipc1_public/server_010.champsimtrace.xz
LHT KB: 126.25
SCC KB: 1.56
Total KB: 127.81
CPU 0 L1D next line prefetcher
Heartbeat CPU 0 instructions: 10000000 cycles: 3202887 heartbeat IPC: 3.12218 cumulative IPC: 3.12218 (Simulation time: 0 hr 5 min 56 sec) 
Heartbeat CPU 0 instructions: 20000002 cycles: 6403276 heartbeat IPC: 3.12462 cumulative IPC: 3.1234 (Simulation time: 0 hr 11 min 44 sec) 
Heartbeat CPU 0 instructions: 30000001 cycles: 9606304 heartbeat IPC: 3.12205 cumulative IPC: 3.12295 (Simulation time: 0 hr 17 min 35 sec) 
Heartbeat CPU 0 instructions: 40000000 cycles: 12805274 heartbeat IPC: 3.12601 cumulative IPC: 3.12371 (Simulation time: 0 hr 23 min 23 sec) 
Heartbeat CPU 0 instructions: 50000003 cycles: 16010248 heartbeat IPC: 3.12015 cumulative IPC: 3.123 (Simulation time: 0 hr 29 min 7 sec) 

Warmup complete CPU 0 instructions: 50000003 cycles: 16010248 (Simulation time: 0 hr 29 min 7 sec) 

Heartbeat CPU 0 instructions: 60000001 cycles: 23342449 heartbeat IPC: 1.36385 cumulative IPC: 1.36385 (Simulation time: 0 hr 36 min 44 sec) 
Heartbeat CPU 0 instructions: 70000000 cycles: 30753606 heartbeat IPC: 1.34932 cumulative IPC: 1.35654 (Simulation time: 0 hr 44 min 33 sec) 
Heartbeat CPU 0 instructions: 80000003 cycles: 38250179 heartbeat IPC: 1.33394 cumulative IPC: 1.34892 (Simulation time: 0 hr 52 min 23 sec) 
Heartbeat CPU 0 instructions: 90000002 cycles: 45456987 heartbeat IPC: 1.38758 cumulative IPC: 1.35838 (Simulation time: 1 hr 0 min 2 sec) 
Heartbeat CPU 0 instructions: 100000003 cycles: 66154148 heartbeat IPC: 0.483158 cumulative IPC: 0.99713 (Simulation time: 1 hr 7 min 38 sec) 
Finished CPU 0 instructions: 50000000 cycles: 50143900 cumulative IPC: 0.99713 (Simulation time: 1 hr 7 min 38 sec) 

ChampSim completed all CPUs

Region of Interest Statistics

CPU 0 cumulative IPC: 0.99713 instructions: 50000000 cycles: 50143900
L1D TOTAL     ACCESS:   19964003  HIT:   16738551  MISS:    3225452
L1D LOAD      ACCESS:    7736085  HIT:    6143423  MISS:    1592662
L1D RFO       ACCESS:    4716570  HIT:    4622120  MISS:      94450
L1D PREFETCH  ACCESS:    7511348  HIT:    5973008  MISS:    1538340
L1D WRITEBACK ACCESS:          0  HIT:          0  MISS:          0
L1D PREFETCH  REQUESTED:    7768989  ISSUED:    7671577  USEFUL:     117626  USELESS:    1420686
L1D AVERAGE MISS LATENCY: 22.9371 cycles
L1I TOTAL     ACCESS:   19745486  HIT:   17401710  MISS:    2343776
L1I LOAD      ACCESS:    9934754  HIT:    9692417  MISS:     242337
L1I RFO       ACCESS:          0  HIT:          0  MISS:          0
L1I PREFETCH  ACCESS:    9810732  HIT:    7709293  MISS:    2101439
L1I WRITEBACK ACCESS:          0  HIT:          0  MISS:          0
L1I PREFETCH  REQUESTED:   12327598  ISSUED:   12327598  USEFUL:    1042048  USELESS:    1059372
L1I AVERAGE MISS LATENCY: 24.7087 cycles
L2C TOTAL     ACCESS:    7171809  HIT:    6001626  MISS:    1170183
L2C LOAD      ACCESS:    1626665  HIT:    1382081  MISS:     244584
L2C RFO       ACCESS:      93381  HIT:      48870  MISS:      44511
L2C PREFETCH  ACCESS:    5186402  HIT:    4307605  MISS:     878797
L2C WRITEBACK ACCESS:     265361  HIT:     263070  MISS:       2291
L2C PREFETCH  REQUESTED:    5641057  ISSUED:    5636291  USEFUL:      26418  USELESS:     852982
L2C AVERAGE MISS LATENCY: 46.3085 cycles
LLC TOTAL     ACCESS:    2439209  HIT:    2307398  MISS:     131811
LLC LOAD      ACCESS:     244501  HIT:     227106  MISS:      17395
LLC RFO       ACCESS:      44502  HIT:      35806  MISS:       8696
LLC PREFETCH  ACCESS:    1998395  HIT:    1892897  MISS:     105498
LLC WRITEBACK ACCESS:     151811  HIT:     151589  MISS:        222
LLC PREFETCH  REQUESTED:          0  ISSUED:          0  USEFUL:       9375  USELESS:      96115
LLC AVERAGE MISS LATENCY: 176.443 cycles
Major fault: 0 Minor fault: 5624
CPU 0 L1D next line prefetcher final stats

DRAM Statistics
 CHANNEL 0
 RQ ROW_BUFFER_HIT:      20433  ROW_BUFFER_MISS:     111138
 DBUS_CONGESTED:      59450
 WQ ROW_BUFFER_HIT:       9869  ROW_BUFFER_MISS:      44386  FULL:          0

 AVG_CONGESTED_CYCLE: 5

CPU 0 Branch Prediction Accuracy: 99.5528% MPKI: 0.89798 Average ROB Occupancy at Mispredict: 121.833

Branch types
NOT_BRANCH: 39958813 79.9176%
BRANCH_DIRECT_JUMP: 449946 0.899892%
BRANCH_INDIRECT: 140210 0.28042%
BRANCH_CONDITIONAL: 7679680 15.3594%
BRANCH_DIRECT_CALL: 701578 1.40316%
BRANCH_INDIRECT_CALL: 168971 0.337942%
BRANCH_RETURN: 900560 1.80112%
BRANCH_OTHER: 0 0%

