Initialize SIGNATURE TABLE
ST_SET: 1
ST_WAY: 256
ST_TAG_BIT: 16
ST_TAG_MASK: ffff

Initialize PATTERN TABLE
PT_SET: 512
PT_WAY: 4
SIG_DELTA_BIT: 7
C_SIG_BIT: 4
C_DELTA_BIT: 4

Initialize PREFETCH FILTER
FILTER_SET: 1024

*** ChampSim Multicore Out-of-Order Simulator ***

Warmup Instructions: 50000000
Simulation Instructions: 50000000
Number of CPUs: 1
LLC sets: 2048
LLC ways: 16
Off-chip DRAM Size: 4096 MB Channels: 1 Width: 64-bit Data Rate: 3200 MT/s

CPU 0 runs /home/sankara2004/240C/hw1/ChampSim_2/ChampSim/ipc1_public/server_019.champsimtrace.xz
CPU 0 EPI prefetcher
CPU 0 L1D next line prefetcher
Heartbeat CPU 0 instructions: 10000002 cycles: 3623434 heartbeat IPC: 2.75981 cumulative IPC: 2.75981 (Simulation time: 0 hr 6 min 34 sec) 
Heartbeat CPU 0 instructions: 20000003 cycles: 7248390 heartbeat IPC: 2.75865 cumulative IPC: 2.75923 (Simulation time: 0 hr 13 min 7 sec) 
Heartbeat CPU 0 instructions: 30000002 cycles: 10871793 heartbeat IPC: 2.75984 cumulative IPC: 2.75943 (Simulation time: 0 hr 19 min 44 sec) 
Heartbeat CPU 0 instructions: 40000002 cycles: 14506756 heartbeat IPC: 2.75106 cumulative IPC: 2.75734 (Simulation time: 0 hr 26 min 18 sec) 
Heartbeat CPU 0 instructions: 50000001 cycles: 18130216 heartbeat IPC: 2.75979 cumulative IPC: 2.75783 (Simulation time: 0 hr 32 min 52 sec) 

Warmup complete CPU 0 instructions: 50000001 cycles: 18130216 (Simulation time: 0 hr 32 min 52 sec) 

Heartbeat CPU 0 instructions: 60000000 cycles: 37980791 heartbeat IPC: 0.503764 cumulative IPC: 0.503764 (Simulation time: 0 hr 41 min 14 sec) 
Heartbeat CPU 0 instructions: 70000002 cycles: 61652366 heartbeat IPC: 0.422448 cumulative IPC: 0.459536 (Simulation time: 0 hr 49 min 48 sec) 
Heartbeat CPU 0 instructions: 80000001 cycles: 82165760 heartbeat IPC: 0.487486 cumulative IPC: 0.46849 (Simulation time: 0 hr 58 min 52 sec) 
Heartbeat CPU 0 instructions: 90000002 cycles: 99739370 heartbeat IPC: 0.569035 cumulative IPC: 0.490141 (Simulation time: 1 hr 7 min 21 sec) 
Heartbeat CPU 0 instructions: 100000002 cycles: 117373892 heartbeat IPC: 0.56707 cumulative IPC: 0.50381 (Simulation time: 1 hr 15 min 26 sec) 
Finished CPU 0 instructions: 50000001 cycles: 99243676 cumulative IPC: 0.50381 (Simulation time: 1 hr 15 min 26 sec) 

ChampSim completed all CPUs

Region of Interest Statistics

CPU 0 cumulative IPC: 0.50381 instructions: 50000001 cycles: 99243676
L1D TOTAL     ACCESS:   18299070  HIT:   16075461  MISS:    2223609
L1D LOAD      ACCESS:    6973659  HIT:    6218382  MISS:     755277
L1D RFO       ACCESS:    5515674  HIT:    4613666  MISS:     902008
L1D PREFETCH  ACCESS:    5809737  HIT:    5243413  MISS:     566324
L1D WRITEBACK ACCESS:          0  HIT:          0  MISS:          0
L1D PREFETCH  REQUESTED:    7010797  ISSUED:    6824621  USEFUL:     197172  USELESS:     369061
L1D AVERAGE MISS LATENCY: 186.303 cycles
L1I TOTAL     ACCESS:   32768034  HIT:   30464890  MISS:    2303144
L1I LOAD      ACCESS:    9860284  HIT:    9839914  MISS:      20370
L1I RFO       ACCESS:          0  HIT:          0  MISS:          0
L1I PREFETCH  ACCESS:   22907750  HIT:   20624976  MISS:    2282774
L1I WRITEBACK ACCESS:          0  HIT:          0  MISS:          0
L1I PREFETCH  REQUESTED:   26629127  ISSUED:   26629127  USEFUL:    2106449  USELESS:     176306
L1I AVERAGE MISS LATENCY: 20.1321 cycles
L2C TOTAL     ACCESS:    6719465  HIT:    4827825  MISS:    1891640
L2C LOAD      ACCESS:     569781  HIT:     237209  MISS:     332572
L2C RFO       ACCESS:     901522  HIT:      18160  MISS:     883362
L2C PREFETCH  ACCESS:    4073495  HIT:    3400158  MISS:     673337
L2C WRITEBACK ACCESS:    1174667  HIT:    1172298  MISS:       2369
L2C PREFETCH  REQUESTED:    4012267  ISSUED:    4008586  USEFUL:      22391  USELESS:     649445
L2C AVERAGE MISS LATENCY: 223.28 cycles
LLC TOTAL     ACCESS:    4137215  HIT:    2550080  MISS:    1587135
LLC LOAD      ACCESS:     332411  HIT:     167901  MISS:     164510
LLC RFO       ACCESS:     883357  HIT:     114601  MISS:     768756
LLC PREFETCH  ACCESS:    1810523  HIT:    1158718  MISS:     651805
LLC WRITEBACK ACCESS:    1110924  HIT:    1108860  MISS:       2064
LLC PREFETCH  REQUESTED:          0  ISSUED:          0  USEFUL:      51004  USELESS:     600084
LLC AVERAGE MISS LATENCY: 276.456 cycles
Major fault: 0 Minor fault: 25694
CPU 0 L1I EPI prefetcher final stats
CPU 0 L1D next line prefetcher final stats

DRAM Statistics
 CHANNEL 0
 RQ ROW_BUFFER_HIT:     390384  ROW_BUFFER_MISS:    1194434
 DBUS_CONGESTED:    1567722
 WQ ROW_BUFFER_HIT:     268928  ROW_BUFFER_MISS:     666325  FULL:          0

 AVG_CONGESTED_CYCLE: 6

CPU 0 Branch Prediction Accuracy: 99.2186% MPKI: 1.32192 Average ROB Occupancy at Mispredict: 179.692

Branch types
NOT_BRANCH: 41540785 83.0816%
BRANCH_DIRECT_JUMP: 462384 0.924768%
BRANCH_INDIRECT: 45460 0.09092%
BRANCH_CONDITIONAL: 6209281 12.4186%
BRANCH_DIRECT_CALL: 666241 1.33248%
BRANCH_INDIRECT_CALL: 204728 0.409456%
BRANCH_RETURN: 870978 1.74196%
BRANCH_OTHER: 0 0%

