Initialize SIGNATURE TABLE
ST_SET: 1
ST_WAY: 256
ST_TAG_BIT: 16
ST_TAG_MASK: ffff

Initialize PATTERN TABLE
PT_SET: 512
PT_WAY: 4
SIG_DELTA_BIT: 7
C_SIG_BIT: 4
C_DELTA_BIT: 4

Initialize PREFETCH FILTER
FILTER_SET: 1024

*** ChampSim Multicore Out-of-Order Simulator ***

Warmup Instructions: 50000000
Simulation Instructions: 50000000
Number of CPUs: 1
LLC sets: 2048
LLC ways: 16
Off-chip DRAM Size: 4096 MB Channels: 1 Width: 64-bit Data Rate: 3200 MT/s

CPU 0 runs /home/sankara2004/240C/hw1/ChampSim_2/ChampSim/ipc1_public/server_011.champsimtrace.xz
LHT KB: 252.50
SCC KB: 1.56
Total KB: 254.06
CPU 0 L1D next line prefetcher
Heartbeat CPU 0 instructions: 10000002 cycles: 3211902 heartbeat IPC: 3.11342 cumulative IPC: 3.11342 (Simulation time: 0 hr 5 min 55 sec) 
Heartbeat CPU 0 instructions: 20000001 cycles: 6429149 heartbeat IPC: 3.10825 cumulative IPC: 3.11083 (Simulation time: 0 hr 11 min 38 sec) 
Heartbeat CPU 0 instructions: 30000001 cycles: 9690424 heartbeat IPC: 3.06629 cumulative IPC: 3.09584 (Simulation time: 0 hr 17 min 23 sec) 
Heartbeat CPU 0 instructions: 40000003 cycles: 12898869 heartbeat IPC: 3.11678 cumulative IPC: 3.10105 (Simulation time: 0 hr 23 min 5 sec) 
Heartbeat CPU 0 instructions: 50000000 cycles: 16114540 heartbeat IPC: 3.10977 cumulative IPC: 3.10279 (Simulation time: 0 hr 28 min 45 sec) 

Warmup complete CPU 0 instructions: 50000004 cycles: 16114541 (Simulation time: 0 hr 28 min 45 sec) 

Heartbeat CPU 0 instructions: 60000002 cycles: 23476225 heartbeat IPC: 1.35838 cumulative IPC: 1.35838 (Simulation time: 0 hr 36 min 18 sec) 
Heartbeat CPU 0 instructions: 70000001 cycles: 31240916 heartbeat IPC: 1.28788 cumulative IPC: 1.32219 (Simulation time: 0 hr 43 min 58 sec) 
Heartbeat CPU 0 instructions: 80000003 cycles: 39916177 heartbeat IPC: 1.1527 cumulative IPC: 1.26042 (Simulation time: 0 hr 51 min 46 sec) 
Heartbeat CPU 0 instructions: 90000001 cycles: 47496073 heartbeat IPC: 1.31928 cumulative IPC: 1.27463 (Simulation time: 0 hr 59 min 21 sec) 
Heartbeat CPU 0 instructions: 100000000 cycles: 54843868 heartbeat IPC: 1.36095 cumulative IPC: 1.29101 (Simulation time: 1 hr 6 min 50 sec) 
Finished CPU 0 instructions: 50000003 cycles: 38729339 cumulative IPC: 1.29101 (Simulation time: 1 hr 6 min 50 sec) 

ChampSim completed all CPUs

Region of Interest Statistics

CPU 0 cumulative IPC: 1.29101 instructions: 50000003 cycles: 38729339
L1D TOTAL     ACCESS:   18193331  HIT:   17161971  MISS:    1031360
L1D LOAD      ACCESS:    6800122  HIT:    6318398  MISS:     481724
L1D RFO       ACCESS:    4833132  HIT:    4750902  MISS:      82230
L1D PREFETCH  ACCESS:    6560077  HIT:    6092671  MISS:     467406
L1D WRITEBACK ACCESS:          0  HIT:          0  MISS:          0
L1D PREFETCH  REQUESTED:    6838435  ISSUED:    6746180  USEFUL:     137013  USELESS:     330388
L1D AVERAGE MISS LATENCY: 41.2545 cycles
L1I TOTAL     ACCESS:   19292305  HIT:   16684112  MISS:    2608193
L1I LOAD      ACCESS:    8878640  HIT:    8670491  MISS:     208149
L1I RFO       ACCESS:          0  HIT:          0  MISS:          0
L1I PREFETCH  ACCESS:   10413665  HIT:    8013621  MISS:    2400044
L1I WRITEBACK ACCESS:          0  HIT:          0  MISS:          0
L1I PREFETCH  REQUESTED:   12248336  ISSUED:   12248336  USEFUL:    1155551  USELESS:    1244481
L1I AVERAGE MISS LATENCY: 25.3601 cycles
L2C TOTAL     ACCESS:    4814043  HIT:    3644484  MISS:    1169559
L2C LOAD      ACCESS:     505867  HIT:     268900  MISS:     236967
L2C RFO       ACCESS:      80277  HIT:      31970  MISS:      48307
L2C PREFETCH  ACCESS:    3959786  HIT:    3077993  MISS:     881793
L2C WRITEBACK ACCESS:     268113  HIT:     265621  MISS:       2492
L2C PREFETCH  REQUESTED:    3325509  ISSUED:    3320047  USEFUL:      28541  USELESS:     852869
L2C AVERAGE MISS LATENCY: 50.6448 cycles
LLC TOTAL     ACCESS:    2258769  HIT:    2089754  MISS:     169015
LLC LOAD      ACCESS:     236858  HIT:     215100  MISS:      21758
LLC RFO       ACCESS:      48295  HIT:      34579  MISS:      13716
LLC PREFETCH  ACCESS:    1812910  HIT:    1679594  MISS:     133316
LLC WRITEBACK ACCESS:     160706  HIT:     160481  MISS:        225
LLC PREFETCH  REQUESTED:          0  ISSUED:          0  USEFUL:      12282  USELESS:     119463
LLC AVERAGE MISS LATENCY: 183.428 cycles
Major fault: 0 Minor fault: 6997
CPU 0 L1D next line prefetcher final stats

DRAM Statistics
 CHANNEL 0
 RQ ROW_BUFFER_HIT:      32527  ROW_BUFFER_MISS:     136249
 DBUS_CONGESTED:      78818
 WQ ROW_BUFFER_HIT:      11440  ROW_BUFFER_MISS:      49743  FULL:          0

 AVG_CONGESTED_CYCLE: 5

CPU 0 Branch Prediction Accuracy: 97.5565% MPKI: 4.59006 Average ROB Occupancy at Mispredict: 61.9211

Branch types
NOT_BRANCH: 40607199 81.2144%
BRANCH_DIRECT_JUMP: 451601 0.903202%
BRANCH_INDIRECT: 151580 0.30316%
BRANCH_CONDITIONAL: 7041635 14.0833%
BRANCH_DIRECT_CALL: 647827 1.29565%
BRANCH_INDIRECT_CALL: 211373 0.422746%
BRANCH_RETURN: 888439 1.77688%
BRANCH_OTHER: 0 0%

