Initialize SIGNATURE TABLE
ST_SET: 1
ST_WAY: 256
ST_TAG_BIT: 16
ST_TAG_MASK: ffff

Initialize PATTERN TABLE
PT_SET: 512
PT_WAY: 4
SIG_DELTA_BIT: 7
C_SIG_BIT: 4
C_DELTA_BIT: 4

Initialize PREFETCH FILTER
FILTER_SET: 1024

*** ChampSim Multicore Out-of-Order Simulator ***

Warmup Instructions: 50000000
Simulation Instructions: 50000000
Number of CPUs: 1
LLC sets: 2048
LLC ways: 16
Off-chip DRAM Size: 4096 MB Channels: 1 Width: 64-bit Data Rate: 3200 MT/s

CPU 0 runs /home/sankara2004/240C/hw1/ChampSim_2/ChampSim/ipc1_public/server_003.champsimtrace.xz
CPU 0 EPI prefetcher
CPU 0 L1D next line prefetcher
Heartbeat CPU 0 instructions: 10000002 cycles: 3220680 heartbeat IPC: 3.10493 cumulative IPC: 3.10493 (Simulation time: 0 hr 6 min 31 sec) 
Heartbeat CPU 0 instructions: 20000000 cycles: 6537757 heartbeat IPC: 3.0147 cumulative IPC: 3.05915 (Simulation time: 0 hr 12 min 59 sec) 
Heartbeat CPU 0 instructions: 30000000 cycles: 9745120 heartbeat IPC: 3.11783 cumulative IPC: 3.07846 (Simulation time: 0 hr 19 min 31 sec) 
Heartbeat CPU 0 instructions: 40000001 cycles: 13159645 heartbeat IPC: 2.92867 cumulative IPC: 3.0396 (Simulation time: 0 hr 26 min 2 sec) 
Heartbeat CPU 0 instructions: 50000003 cycles: 16878396 heartbeat IPC: 2.68908 cumulative IPC: 2.96237 (Simulation time: 0 hr 32 min 32 sec) 

Warmup complete CPU 0 instructions: 50000003 cycles: 16878396 (Simulation time: 0 hr 32 min 32 sec) 

Heartbeat CPU 0 instructions: 60000000 cycles: 25668863 heartbeat IPC: 1.1376 cumulative IPC: 1.1376 (Simulation time: 0 hr 40 min 47 sec) 
Heartbeat CPU 0 instructions: 70000003 cycles: 34725911 heartbeat IPC: 1.10411 cumulative IPC: 1.1206 (Simulation time: 0 hr 49 min 9 sec) 
Heartbeat CPU 0 instructions: 80000000 cycles: 45200960 heartbeat IPC: 0.954649 cumulative IPC: 1.05923 (Simulation time: 0 hr 57 min 37 sec) 
Heartbeat CPU 0 instructions: 90000001 cycles: 55730734 heartbeat IPC: 0.949688 cumulative IPC: 1.02954 (Simulation time: 1 hr 5 min 53 sec) 
Heartbeat CPU 0 instructions: 100000001 cycles: 66673879 heartbeat IPC: 0.913814 cumulative IPC: 1.00411 (Simulation time: 1 hr 14 min 0 sec) 
Finished CPU 0 instructions: 50000002 cycles: 49795484 cumulative IPC: 1.00411 (Simulation time: 1 hr 14 min 0 sec) 

ChampSim completed all CPUs

Region of Interest Statistics

CPU 0 cumulative IPC: 1.00411 instructions: 50000002 cycles: 49795484
L1D TOTAL     ACCESS:   20019945  HIT:   18879104  MISS:    1140841
L1D LOAD      ACCESS:    7861639  HIT:    7333331  MISS:     528308
L1D RFO       ACCESS:    4554742  HIT:    4437412  MISS:     117330
L1D PREFETCH  ACCESS:    7603564  HIT:    7108361  MISS:     495203
L1D WRITEBACK ACCESS:          0  HIT:          0  MISS:          0
L1D PREFETCH  REQUESTED:    7920529  ISSUED:    7827778  USEFUL:     157010  USELESS:     338152
L1D AVERAGE MISS LATENCY: 55.0306 cycles
L1I TOTAL     ACCESS:   32611817  HIT:   31369678  MISS:    1242139
L1I LOAD      ACCESS:    9267080  HIT:    9117334  MISS:     149746
L1I RFO       ACCESS:          0  HIT:          0  MISS:          0
L1I PREFETCH  ACCESS:   23344737  HIT:   22252344  MISS:    1092393
L1I WRITEBACK ACCESS:          0  HIT:          0  MISS:          0
L1I PREFETCH  REQUESTED:   30131344  ISSUED:   30131344  USEFUL:     784878  USELESS:     307580
L1I AVERAGE MISS LATENCY: 38.2934 cycles
L2C TOTAL     ACCESS:    3275968  HIT:    2312130  MISS:     963838
L2C LOAD      ACCESS:     626230  HIT:     327463  MISS:     298767
L2C RFO       ACCESS:     114632  HIT:      40866  MISS:      73766
L2C PREFETCH  ACCESS:    2250843  HIT:    1660600  MISS:     590243
L2C WRITEBACK ACCESS:     284263  HIT:     283201  MISS:       1062
L2C PREFETCH  REQUESTED:    2842339  ISSUED:    2838288  USEFUL:      35483  USELESS:     552481
L2C AVERAGE MISS LATENCY: 80.7332 cycles
LLC TOTAL     ACCESS:    1988531  HIT:    1603116  MISS:     385415
LLC LOAD      ACCESS:     291081  HIT:     219739  MISS:      71342
LLC RFO       ACCESS:      73763  HIT:      32021  MISS:      41742
LLC PREFETCH  ACCESS:    1459181  HIT:    1188539  MISS:     270642
LLC WRITEBACK ACCESS:     164506  HIT:     162817  MISS:       1689
LLC PREFETCH  REQUESTED:          0  ISSUED:          0  USEFUL:      39963  USELESS:     219942
LLC AVERAGE MISS LATENCY: 189.857 cycles
Major fault: 0 Minor fault: 7771
CPU 0 L1I EPI prefetcher final stats
CPU 0 L1D next line prefetcher final stats

DRAM Statistics
 CHANNEL 0
 RQ ROW_BUFFER_HIT:      87986  ROW_BUFFER_MISS:     295678
 DBUS_CONGESTED:     195727
 WQ ROW_BUFFER_HIT:      22891  ROW_BUFFER_MISS:      81096  FULL:          0

 AVG_CONGESTED_CYCLE: 5

CPU 0 Branch Prediction Accuracy: 95.439% MPKI: 9.02702 Average ROB Occupancy at Mispredict: 67.6846

Branch types
NOT_BRANCH: 40104088 80.2082%
BRANCH_DIRECT_JUMP: 497928 0.995856%
BRANCH_INDIRECT: 130587 0.261174%
BRANCH_CONDITIONAL: 7219018 14.438%
BRANCH_DIRECT_CALL: 625807 1.25161%
BRANCH_INDIRECT_CALL: 389787 0.779574%
BRANCH_RETURN: 1032747 2.06549%
BRANCH_OTHER: 0 0%

