Initialize SIGNATURE TABLE
ST_SET: 1
ST_WAY: 256
ST_TAG_BIT: 16
ST_TAG_MASK: ffff

Initialize PATTERN TABLE
PT_SET: 512
PT_WAY: 4
SIG_DELTA_BIT: 7
C_SIG_BIT: 4
C_DELTA_BIT: 4

Initialize PREFETCH FILTER
FILTER_SET: 1024

*** ChampSim Multicore Out-of-Order Simulator ***

Warmup Instructions: 50000000
Simulation Instructions: 50000000
Number of CPUs: 1
LLC sets: 2048
LLC ways: 16
Off-chip DRAM Size: 4096 MB Channels: 1 Width: 64-bit Data Rate: 3200 MT/s

CPU 0 runs /home/sankara2004/240C/hw1/ChampSim_2/ChampSim/ipc1_public/server_014.champsimtrace.xz
LHT KB: 252.50
SCC KB: 1.56
Total KB: 254.06
CPU 0 L1D next line prefetcher
Heartbeat CPU 0 instructions: 10000003 cycles: 3519596 heartbeat IPC: 2.84124 cumulative IPC: 2.84124 (Simulation time: 0 hr 5 min 51 sec) 
Heartbeat CPU 0 instructions: 20000000 cycles: 7106860 heartbeat IPC: 2.78764 cumulative IPC: 2.81418 (Simulation time: 0 hr 11 min 33 sec) 
Heartbeat CPU 0 instructions: 30000001 cycles: 10648368 heartbeat IPC: 2.82366 cumulative IPC: 2.81733 (Simulation time: 0 hr 17 min 14 sec) 
Heartbeat CPU 0 instructions: 40000003 cycles: 14196590 heartbeat IPC: 2.81831 cumulative IPC: 2.81758 (Simulation time: 0 hr 22 min 53 sec) 
Heartbeat CPU 0 instructions: 50000000 cycles: 17745264 heartbeat IPC: 2.81795 cumulative IPC: 2.81765 (Simulation time: 0 hr 28 min 30 sec) 

Warmup complete CPU 0 instructions: 50000001 cycles: 17745265 (Simulation time: 0 hr 28 min 30 sec) 

Heartbeat CPU 0 instructions: 60000000 cycles: 24029009 heartbeat IPC: 1.59141 cumulative IPC: 1.59141 (Simulation time: 0 hr 36 min 0 sec) 
Heartbeat CPU 0 instructions: 70000003 cycles: 30319080 heartbeat IPC: 1.58981 cumulative IPC: 1.59061 (Simulation time: 0 hr 43 min 42 sec) 
*** Reached end of trace for Core: 0 Repeating trace: /home/sankara2004/240C/hw1/ChampSim_2/ChampSim/ipc1_public/server_014.champsimtrace.xz
Heartbeat CPU 0 instructions: 80000001 cycles: 36869737 heartbeat IPC: 1.52656 cumulative IPC: 1.56867 (Simulation time: 0 hr 51 min 32 sec) 
Heartbeat CPU 0 instructions: 90000003 cycles: 44373923 heartbeat IPC: 1.33259 cumulative IPC: 1.50214 (Simulation time: 0 hr 59 min 9 sec) 
Heartbeat CPU 0 instructions: 100000001 cycles: 50858452 heartbeat IPC: 1.54213 cumulative IPC: 1.50997 (Simulation time: 1 hr 6 min 41 sec) 
Finished CPU 0 instructions: 50000000 cycles: 33113187 cumulative IPC: 1.50997 (Simulation time: 1 hr 6 min 41 sec) 

ChampSim completed all CPUs

Region of Interest Statistics

CPU 0 cumulative IPC: 1.50997 instructions: 50000000 cycles: 33113187
L1D TOTAL     ACCESS:   21628604  HIT:   21557744  MISS:      70860
L1D LOAD      ACCESS:    6673987  HIT:    6647061  MISS:      26926
L1D RFO       ACCESS:    8412845  HIT:    8380773  MISS:      32072
L1D PREFETCH  ACCESS:    6541772  HIT:    6529910  MISS:      11862
L1D WRITEBACK ACCESS:          0  HIT:          0  MISS:          0
L1D PREFETCH  REQUESTED:    6678415  ISSUED:    6569405  USEFUL:       3305  USELESS:       8557
L1D AVERAGE MISS LATENCY: 229.978 cycles
L1I TOTAL     ACCESS:   27315124  HIT:   25314385  MISS:    2000739
L1I LOAD      ACCESS:    9691034  HIT:    9554373  MISS:     136661
L1I RFO       ACCESS:          0  HIT:          0  MISS:          0
L1I PREFETCH  ACCESS:   17624090  HIT:   15760012  MISS:    1864078
L1I WRITEBACK ACCESS:          0  HIT:          0  MISS:          0
L1I PREFETCH  REQUESTED:   19461918  ISSUED:   19461896  USEFUL:    1455106  USELESS:     408959
L1I AVERAGE MISS LATENCY: 14.1448 cycles
L2C TOTAL     ACCESS:    2519267  HIT:    2446123  MISS:      73144
L2C LOAD      ACCESS:      39386  HIT:      21680  MISS:      17706
L2C RFO       ACCESS:      32013  HIT:       1045  MISS:      30968
L2C PREFETCH  ACCESS:    2409502  HIT:    2385067  MISS:      24435
L2C WRITEBACK ACCESS:      38366  HIT:      38331  MISS:         35
L2C PREFETCH  REQUESTED:     905300  ISSUED:     905288  USEFUL:       1245  USELESS:      22940
L2C AVERAGE MISS LATENCY: 256.245 cycles
LLC TOTAL     ACCESS:     303537  HIT:     240428  MISS:      63109
LLC LOAD      ACCESS:      16478  HIT:       4375  MISS:      12103
LLC RFO       ACCESS:      30968  HIT:       5078  MISS:      25890
LLC PREFETCH  ACCESS:     221174  HIT:     196136  MISS:      25038
LLC WRITEBACK ACCESS:      34917  HIT:      34839  MISS:         78
LLC PREFETCH  REQUESTED:          0  ISSUED:          0  USEFUL:       3625  USELESS:      23092
LLC AVERAGE MISS LATENCY: 313.394 cycles
Major fault: 0 Minor fault: 1923
CPU 0 L1D next line prefetcher final stats

DRAM Statistics
 CHANNEL 0
 RQ ROW_BUFFER_HIT:      27105  ROW_BUFFER_MISS:      35922
 DBUS_CONGESTED:      64104
 WQ ROW_BUFFER_HIT:       8086  ROW_BUFFER_MISS:      23602  FULL:          0

 AVG_CONGESTED_CYCLE: 6

CPU 0 Branch Prediction Accuracy: 99.7719% MPKI: 0.38824 Average ROB Occupancy at Mispredict: 155.245

Branch types
NOT_BRANCH: 41489017 82.978%
BRANCH_DIRECT_JUMP: 449417 0.898834%
BRANCH_INDIRECT: 2330 0.00466%
BRANCH_CONDITIONAL: 5470016 10.94%
BRANCH_DIRECT_CALL: 1172187 2.34437%
BRANCH_INDIRECT_CALL: 122383 0.244766%
BRANCH_RETURN: 1294554 2.58911%
BRANCH_OTHER: 0 0%

