Initialize SIGNATURE TABLE
ST_SET: 1
ST_WAY: 256
ST_TAG_BIT: 16
ST_TAG_MASK: ffff

Initialize PATTERN TABLE
PT_SET: 512
PT_WAY: 4
SIG_DELTA_BIT: 7
C_SIG_BIT: 4
C_DELTA_BIT: 4

Initialize PREFETCH FILTER
FILTER_SET: 1024

*** ChampSim Multicore Out-of-Order Simulator ***

Warmup Instructions: 50000000
Simulation Instructions: 50000000
Number of CPUs: 1
LLC sets: 2048
LLC ways: 16
Off-chip DRAM Size: 4096 MB Channels: 1 Width: 64-bit Data Rate: 3200 MT/s

CPU 0 runs /home/sankara2004/240C/hw1/ChampSim_2/ChampSim/ipc1_public/server_036.champsimtrace.xz
LHT KB: 31.56
SCC KB: 1.56
Total KB: 33.12
CPU 0 L1D next line prefetcher
Heartbeat CPU 0 instructions: 10000000 cycles: 3459045 heartbeat IPC: 2.89097 cumulative IPC: 2.89097 (Simulation time: 0 hr 5 min 46 sec) 
Heartbeat CPU 0 instructions: 20000000 cycles: 6924836 heartbeat IPC: 2.88534 cumulative IPC: 2.88815 (Simulation time: 0 hr 11 min 28 sec) 
Heartbeat CPU 0 instructions: 30000003 cycles: 10433349 heartbeat IPC: 2.85021 cumulative IPC: 2.8754 (Simulation time: 0 hr 17 min 12 sec) 
Heartbeat CPU 0 instructions: 40000000 cycles: 13895851 heartbeat IPC: 2.88808 cumulative IPC: 2.87856 (Simulation time: 0 hr 22 min 55 sec) 
Heartbeat CPU 0 instructions: 50000002 cycles: 17357557 heartbeat IPC: 2.88875 cumulative IPC: 2.88059 (Simulation time: 0 hr 28 min 34 sec) 

Warmup complete CPU 0 instructions: 50000002 cycles: 17357557 (Simulation time: 0 hr 28 min 34 sec) 

Heartbeat CPU 0 instructions: 60000001 cycles: 23046055 heartbeat IPC: 1.75793 cumulative IPC: 1.75793 (Simulation time: 0 hr 36 min 0 sec) 
Heartbeat CPU 0 instructions: 70000001 cycles: 28677467 heartbeat IPC: 1.77575 cumulative IPC: 1.7668 (Simulation time: 0 hr 43 min 52 sec) 
Heartbeat CPU 0 instructions: 80000001 cycles: 34329101 heartbeat IPC: 1.7694 cumulative IPC: 1.76766 (Simulation time: 0 hr 51 min 38 sec) 
Heartbeat CPU 0 instructions: 90000002 cycles: 39952048 heartbeat IPC: 1.77843 cumulative IPC: 1.77034 (Simulation time: 0 hr 59 min 13 sec) 
Heartbeat CPU 0 instructions: 100000001 cycles: 45573090 heartbeat IPC: 1.77903 cumulative IPC: 1.77207 (Simulation time: 1 hr 6 min 40 sec) 
Finished CPU 0 instructions: 50000003 cycles: 28215534 cumulative IPC: 1.77207 (Simulation time: 1 hr 6 min 40 sec) 

ChampSim completed all CPUs

Region of Interest Statistics

CPU 0 cumulative IPC: 1.77207 instructions: 50000003 cycles: 28215534
L1D TOTAL     ACCESS:   20757989  HIT:   20698169  MISS:      59820
L1D LOAD      ACCESS:    6803588  HIT:    6768979  MISS:      34609
L1D RFO       ACCESS:    7347527  HIT:    7340347  MISS:       7180
L1D PREFETCH  ACCESS:    6606874  HIT:    6588843  MISS:      18031
L1D WRITEBACK ACCESS:          0  HIT:          0  MISS:          0
L1D PREFETCH  REQUESTED:    6804573  ISSUED:    6641004  USEFUL:       5461  USELESS:      12571
L1D AVERAGE MISS LATENCY: 17.7948 cycles
L1I TOTAL     ACCESS:   24351852  HIT:   19931336  MISS:    4420516
L1I LOAD      ACCESS:    8878134  HIT:    8497338  MISS:     380796
L1I RFO       ACCESS:          0  HIT:          0  MISS:          0
L1I PREFETCH  ACCESS:   15473718  HIT:   11433998  MISS:    4039720
L1I WRITEBACK ACCESS:          0  HIT:          0  MISS:          0
L1I PREFETCH  REQUESTED:   17411394  ISSUED:   17411394  USEFUL:    3385459  USELESS:     654282
L1I AVERAGE MISS LATENCY: 13.3372 cycles
L2C TOTAL     ACCESS:    6003607  HIT:    6001028  MISS:       2579
L2C LOAD      ACCESS:     100499  HIT:     100102  MISS:        397
L2C RFO       ACCESS:       7173  HIT:       7120  MISS:         53
L2C PREFETCH  ACCESS:    5880351  HIT:    5878254  MISS:       2097
L2C WRITEBACK ACCESS:      15584  HIT:      15552  MISS:         32
L2C PREFETCH  REQUESTED:    2698415  ISSUED:    2698415  USEFUL:        159  USELESS:       1422
L2C AVERAGE MISS LATENCY: 153.656 cycles
LLC TOTAL     ACCESS:     201194  HIT:     198294  MISS:       2900
LLC LOAD      ACCESS:        397  HIT:        118  MISS:        279
LLC RFO       ACCESS:         53  HIT:         22  MISS:         31
LLC PREFETCH  ACCESS:     199805  HIT:     197227  MISS:       2578
LLC WRITEBACK ACCESS:        939  HIT:        927  MISS:         12
LLC PREFETCH  REQUESTED:          0  ISSUED:          0  USEFUL:         32  USELESS:        702
LLC AVERAGE MISS LATENCY: 223.661 cycles
Major fault: 0 Minor fault: 1937
CPU 0 L1D next line prefetcher final stats

DRAM Statistics
 CHANNEL 0
 RQ ROW_BUFFER_HIT:        324  ROW_BUFFER_MISS:       2564
 DBUS_CONGESTED:       1458
 WQ ROW_BUFFER_HIT:        282  ROW_BUFFER_MISS:       1779  FULL:          0

 AVG_CONGESTED_CYCLE: 6

CPU 0 Branch Prediction Accuracy: 99.8717% MPKI: 0.21174 Average ROB Occupancy at Mispredict: 212.451

Branch types
NOT_BRANCH: 41748446 83.4969%
BRANCH_DIRECT_JUMP: 468564 0.937128%
BRANCH_INDIRECT: 0 0%
BRANCH_CONDITIONAL: 5599754 11.1995%
BRANCH_DIRECT_CALL: 885106 1.77021%
BRANCH_INDIRECT_CALL: 206338 0.412676%
BRANCH_RETURN: 1091468 2.18294%
BRANCH_OTHER: 0 0%

