Initialize SIGNATURE TABLE
ST_SET: 1
ST_WAY: 256
ST_TAG_BIT: 16
ST_TAG_MASK: ffff

Initialize PATTERN TABLE
PT_SET: 512
PT_WAY: 4
SIG_DELTA_BIT: 7
C_SIG_BIT: 4
C_DELTA_BIT: 4

Initialize PREFETCH FILTER
FILTER_SET: 1024

*** ChampSim Multicore Out-of-Order Simulator ***

Warmup Instructions: 50000000
Simulation Instructions: 50000000
Number of CPUs: 1
LLC sets: 2048
LLC ways: 16
Off-chip DRAM Size: 4096 MB Channels: 1 Width: 64-bit Data Rate: 3200 MT/s

CPU 0 runs /home/sankara2004/240C/hw1/ChampSim_2/ChampSim/ipc1_public/server_025.champsimtrace.xz
CPU 0 EPI prefetcher
CPU 0 L1D next line prefetcher
Heartbeat CPU 0 instructions: 10000003 cycles: 3524021 heartbeat IPC: 2.83767 cumulative IPC: 2.83767 (Simulation time: 0 hr 6 min 31 sec) 
Heartbeat CPU 0 instructions: 20000000 cycles: 7055782 heartbeat IPC: 2.83145 cumulative IPC: 2.83455 (Simulation time: 0 hr 13 min 3 sec) 
Heartbeat CPU 0 instructions: 30000001 cycles: 10579772 heartbeat IPC: 2.83769 cumulative IPC: 2.8356 (Simulation time: 0 hr 19 min 42 sec) 
Heartbeat CPU 0 instructions: 40000003 cycles: 14109768 heartbeat IPC: 2.83286 cumulative IPC: 2.83492 (Simulation time: 0 hr 26 min 16 sec) 
Heartbeat CPU 0 instructions: 50000001 cycles: 17638366 heartbeat IPC: 2.83399 cumulative IPC: 2.83473 (Simulation time: 0 hr 32 min 49 sec) 

Warmup complete CPU 0 instructions: 50000001 cycles: 17638366 (Simulation time: 0 hr 32 min 49 sec) 

Heartbeat CPU 0 instructions: 60000002 cycles: 24408796 heartbeat IPC: 1.47701 cumulative IPC: 1.47701 (Simulation time: 0 hr 41 min 11 sec) 
Heartbeat CPU 0 instructions: 70000000 cycles: 31293737 heartbeat IPC: 1.45245 cumulative IPC: 1.46463 (Simulation time: 0 hr 49 min 40 sec) 
Heartbeat CPU 0 instructions: 80000002 cycles: 38083888 heartbeat IPC: 1.47272 cumulative IPC: 1.46731 (Simulation time: 0 hr 58 min 40 sec) 
Heartbeat CPU 0 instructions: 90000001 cycles: 44542687 heartbeat IPC: 1.54828 cumulative IPC: 1.48675 (Simulation time: 1 hr 7 min 9 sec) 
Heartbeat CPU 0 instructions: 100000003 cycles: 50720442 heartbeat IPC: 1.61871 cumulative IPC: 1.51139 (Simulation time: 1 hr 15 min 23 sec) 
Finished CPU 0 instructions: 50000002 cycles: 33082076 cumulative IPC: 1.51139 (Simulation time: 1 hr 15 min 23 sec) 

ChampSim completed all CPUs

Region of Interest Statistics

CPU 0 cumulative IPC: 1.51139 instructions: 50000002 cycles: 33082076
L1D TOTAL     ACCESS:   19971037  HIT:   18545728  MISS:    1425309
L1D LOAD      ACCESS:    6954865  HIT:    6335771  MISS:     619094
L1D RFO       ACCESS:    6374311  HIT:    6125922  MISS:     248389
L1D PREFETCH  ACCESS:    6641861  HIT:    6084035  MISS:     557826
L1D WRITEBACK ACCESS:          0  HIT:          0  MISS:          0
L1D PREFETCH  REQUESTED:    6995555  ISSUED:    6821488  USEFUL:     130655  USELESS:     427164
L1D AVERAGE MISS LATENCY: 23.1305 cycles
L1I TOTAL     ACCESS:   30410608  HIT:   27312615  MISS:    3097993
L1I LOAD      ACCESS:    9503058  HIT:    9451719  MISS:      51339
L1I RFO       ACCESS:          0  HIT:          0  MISS:          0
L1I PREFETCH  ACCESS:   20907550  HIT:   17860896  MISS:    3046654
L1I WRITEBACK ACCESS:          0  HIT:          0  MISS:          0
L1I PREFETCH  REQUESTED:   26476403  ISSUED:   26476403  USEFUL:    2441898  USELESS:     604812
L1I AVERAGE MISS LATENCY: 18.9798 cycles
L2C TOTAL     ACCESS:    6209504  HIT:    5538128  MISS:     671376
L2C LOAD      ACCESS:     613906  HIT:     505748  MISS:     108158
L2C RFO       ACCESS:     246710  HIT:     167311  MISS:      79399
L2C PREFETCH  ACCESS:    4852142  HIT:    4372547  MISS:     479595
L2C WRITEBACK ACCESS:     496746  HIT:     492522  MISS:       4224
L2C PREFETCH  REQUESTED:    5216678  ISSUED:    5201577  USEFUL:      10327  USELESS:     468708
L2C AVERAGE MISS LATENCY: 38.5848 cycles
LLC TOTAL     ACCESS:    2187998  HIT:    2155511  MISS:      32487
LLC LOAD      ACCESS:     108031  HIT:     104712  MISS:       3319
LLC RFO       ACCESS:      79395  HIT:      68612  MISS:      10783
LLC PREFETCH  ACCESS:    1869462  HIT:    1851313  MISS:      18149
LLC WRITEBACK ACCESS:     131110  HIT:     130874  MISS:        236
LLC PREFETCH  REQUESTED:          0  ISSUED:          0  USEFUL:       1170  USELESS:      15336
LLC AVERAGE MISS LATENCY: 179.061 cycles
Major fault: 0 Minor fault: 2460
CPU 0 L1I EPI prefetcher final stats
CPU 0 L1D next line prefetcher final stats

DRAM Statistics
 CHANNEL 0
 RQ ROW_BUFFER_HIT:       9941  ROW_BUFFER_MISS:      22307
 DBUS_CONGESTED:      19535
 WQ ROW_BUFFER_HIT:       1493  ROW_BUFFER_MISS:      12245  FULL:          0

 AVG_CONGESTED_CYCLE: 6

CPU 0 Branch Prediction Accuracy: 99.8142% MPKI: 0.34676 Average ROB Occupancy at Mispredict: 204.14

Branch types
NOT_BRANCH: 40668916 81.3378%
BRANCH_DIRECT_JUMP: 531700 1.0634%
BRANCH_INDIRECT: 199025 0.39805%
BRANCH_CONDITIONAL: 6211497 12.423%
BRANCH_DIRECT_CALL: 1010911 2.02182%
BRANCH_INDIRECT_CALL: 183501 0.367002%
BRANCH_RETURN: 1194415 2.38883%
BRANCH_OTHER: 0 0%

