Initialize SIGNATURE TABLE
ST_SET: 1
ST_WAY: 256
ST_TAG_BIT: 16
ST_TAG_MASK: ffff

Initialize PATTERN TABLE
PT_SET: 512
PT_WAY: 4
SIG_DELTA_BIT: 7
C_SIG_BIT: 4
C_DELTA_BIT: 4

Initialize PREFETCH FILTER
FILTER_SET: 1024

*** ChampSim Multicore Out-of-Order Simulator ***

Warmup Instructions: 50000000
Simulation Instructions: 50000000
Number of CPUs: 1
LLC sets: 2048
LLC ways: 16
Off-chip DRAM Size: 4096 MB Channels: 1 Width: 64-bit Data Rate: 3200 MT/s

CPU 0 runs /home/sankara2004/240C/hw1/ChampSim_2/ChampSim/ipc1_public/server_002.champsimtrace.xz
LHT KB: 126.25
SCC KB: 1.56
Total KB: 127.81
CPU 0 L1D next line prefetcher
Heartbeat CPU 0 instructions: 10000000 cycles: 3581274 heartbeat IPC: 2.7923 cumulative IPC: 2.7923 (Simulation time: 0 hr 5 min 54 sec) 
Heartbeat CPU 0 instructions: 20000002 cycles: 7170565 heartbeat IPC: 2.78607 cumulative IPC: 2.78918 (Simulation time: 0 hr 11 min 38 sec) 
Heartbeat CPU 0 instructions: 30000000 cycles: 10711339 heartbeat IPC: 2.82424 cumulative IPC: 2.80077 (Simulation time: 0 hr 17 min 26 sec) 
Heartbeat CPU 0 instructions: 40000000 cycles: 14261584 heartbeat IPC: 2.81671 cumulative IPC: 2.80474 (Simulation time: 0 hr 23 min 10 sec) 
Heartbeat CPU 0 instructions: 50000001 cycles: 17809355 heartbeat IPC: 2.81867 cumulative IPC: 2.80751 (Simulation time: 0 hr 28 min 49 sec) 

Warmup complete CPU 0 instructions: 50000001 cycles: 17809355 (Simulation time: 0 hr 28 min 49 sec) 

Heartbeat CPU 0 instructions: 60000000 cycles: 24248888 heartbeat IPC: 1.55291 cumulative IPC: 1.55291 (Simulation time: 0 hr 36 min 23 sec) 
Heartbeat CPU 0 instructions: 70000003 cycles: 30685134 heartbeat IPC: 1.5537 cumulative IPC: 1.5533 (Simulation time: 0 hr 44 min 15 sec) 
Heartbeat CPU 0 instructions: 80000003 cycles: 37123666 heartbeat IPC: 1.55315 cumulative IPC: 1.55325 (Simulation time: 0 hr 52 min 8 sec) 
Heartbeat CPU 0 instructions: 90000002 cycles: 43559742 heartbeat IPC: 1.55374 cumulative IPC: 1.55337 (Simulation time: 0 hr 59 min 50 sec) 
Heartbeat CPU 0 instructions: 100000003 cycles: 49995466 heartbeat IPC: 1.55383 cumulative IPC: 1.55347 (Simulation time: 1 hr 7 min 26 sec) 
Finished CPU 0 instructions: 50000002 cycles: 32186111 cumulative IPC: 1.55347 (Simulation time: 1 hr 7 min 26 sec) 

ChampSim completed all CPUs

Region of Interest Statistics

CPU 0 cumulative IPC: 1.55347 instructions: 50000002 cycles: 32186111
L1D TOTAL     ACCESS:   21525953  HIT:   21525144  MISS:        809
L1D LOAD      ACCESS:    6602681  HIT:    6602306  MISS:        375
L1D RFO       ACCESS:    8432991  HIT:    8432879  MISS:        112
L1D PREFETCH  ACCESS:    6490281  HIT:    6489959  MISS:        322
L1D WRITEBACK ACCESS:          0  HIT:          0  MISS:          0
L1D PREFETCH  REQUESTED:    6602732  ISSUED:    6497671  USEFUL:         92  USELESS:        231
L1D AVERAGE MISS LATENCY: 36.6168 cycles
L1I TOTAL     ACCESS:   28522934  HIT:   27608917  MISS:     914017
L1I LOAD      ACCESS:    9817500  HIT:    9746339  MISS:      71161
L1I RFO       ACCESS:          0  HIT:          0  MISS:          0
L1I PREFETCH  ACCESS:   18705434  HIT:   17862578  MISS:     842856
L1I WRITEBACK ACCESS:          0  HIT:          0  MISS:          0
L1I PREFETCH  REQUESTED:   20593724  ISSUED:   20593724  USEFUL:     710169  USELESS:     132670
L1I AVERAGE MISS LATENCY: 12.9838 cycles
L2C TOTAL     ACCESS:    1034414  HIT:    1034114  MISS:        300
L2C LOAD      ACCESS:       2623  HIT:       2554  MISS:         69
L2C RFO       ACCESS:        112  HIT:        105  MISS:          7
L2C PREFETCH  ACCESS:    1031343  HIT:    1031119  MISS:        224
L2C WRITEBACK ACCESS:        336  HIT:        336  MISS:          0
L2C PREFETCH  REQUESTED:     209043  ISSUED:     209043  USEFUL:         49  USELESS:        125
L2C AVERAGE MISS LATENCY: 79.5867 cycles
LLC TOTAL     ACCESS:      63689  HIT:      63198  MISS:        491
LLC LOAD      ACCESS:         69  HIT:         54  MISS:         15
LLC RFO       ACCESS:          7  HIT:          6  MISS:          1
LLC PREFETCH  ACCESS:      63517  HIT:      63042  MISS:        475
LLC WRITEBACK ACCESS:         96  HIT:         96  MISS:          0
LLC PREFETCH  REQUESTED:          0  ISSUED:          0  USEFUL:          6  USELESS:        160
LLC AVERAGE MISS LATENCY: 212.405 cycles
Major fault: 0 Minor fault: 1880
CPU 0 L1D next line prefetcher final stats

DRAM Statistics
 CHANNEL 0
 RQ ROW_BUFFER_HIT:         55  ROW_BUFFER_MISS:        436
 DBUS_CONGESTED:        212
 WQ ROW_BUFFER_HIT:         58  ROW_BUFFER_MISS:        241  FULL:          0

 AVG_CONGESTED_CYCLE: 6

CPU 0 Branch Prediction Accuracy: 99.8789% MPKI: 0.20388 Average ROB Occupancy at Mispredict: 280.12

Branch types
NOT_BRANCH: 41580695 83.1614%
BRANCH_DIRECT_JUMP: 461630 0.92326%
BRANCH_INDIRECT: 0 0%
BRANCH_CONDITIONAL: 5376437 10.7529%
BRANCH_DIRECT_CALL: 1175775 2.35155%
BRANCH_INDIRECT_CALL: 114840 0.22968%
BRANCH_RETURN: 1290625 2.58125%
BRANCH_OTHER: 0 0%

