Initialize SIGNATURE TABLE
ST_SET: 1
ST_WAY: 256
ST_TAG_BIT: 16
ST_TAG_MASK: ffff

Initialize PATTERN TABLE
PT_SET: 512
PT_WAY: 4
SIG_DELTA_BIT: 7
C_SIG_BIT: 4
C_DELTA_BIT: 4

Initialize PREFETCH FILTER
FILTER_SET: 1024

*** ChampSim Multicore Out-of-Order Simulator ***

Warmup Instructions: 50000000
Simulation Instructions: 50000000
Number of CPUs: 1
LLC sets: 2048
LLC ways: 16
Off-chip DRAM Size: 4096 MB Channels: 1 Width: 64-bit Data Rate: 3200 MT/s

CPU 0 runs /home/sankara2004/240C/hw1/ChampSim_2/ChampSim/ipc1_public/server_013.champsimtrace.xz
CPU 0 EPI prefetcher
CPU 0 L1D next line prefetcher
Heartbeat CPU 0 instructions: 10000000 cycles: 3213895 heartbeat IPC: 3.11149 cumulative IPC: 3.11149 (Simulation time: 0 hr 6 min 31 sec) 
Heartbeat CPU 0 instructions: 20000001 cycles: 6416119 heartbeat IPC: 3.12283 cumulative IPC: 3.11715 (Simulation time: 0 hr 12 min 58 sec) 
Heartbeat CPU 0 instructions: 30000002 cycles: 9622227 heartbeat IPC: 3.11905 cumulative IPC: 3.11778 (Simulation time: 0 hr 19 min 31 sec) 
Heartbeat CPU 0 instructions: 40000002 cycles: 12823907 heartbeat IPC: 3.12336 cumulative IPC: 3.11917 (Simulation time: 0 hr 26 min 1 sec) 
Heartbeat CPU 0 instructions: 50000000 cycles: 16025955 heartbeat IPC: 3.123 cumulative IPC: 3.11994 (Simulation time: 0 hr 32 min 29 sec) 

Warmup complete CPU 0 instructions: 50000004 cycles: 16025956 (Simulation time: 0 hr 32 min 29 sec) 

Heartbeat CPU 0 instructions: 60000002 cycles: 24201138 heartbeat IPC: 1.22321 cumulative IPC: 1.22321 (Simulation time: 0 hr 40 min 45 sec) 
Heartbeat CPU 0 instructions: 70000000 cycles: 32513268 heartbeat IPC: 1.20306 cumulative IPC: 1.21305 (Simulation time: 0 hr 49 min 9 sec) 
Heartbeat CPU 0 instructions: 80000003 cycles: 40312253 heartbeat IPC: 1.28222 cumulative IPC: 1.23526 (Simulation time: 0 hr 57 min 37 sec) 
Heartbeat CPU 0 instructions: 90000003 cycles: 48280216 heartbeat IPC: 1.25503 cumulative IPC: 1.24015 (Simulation time: 1 hr 5 min 52 sec) 
Heartbeat CPU 0 instructions: 100000003 cycles: 56280213 heartbeat IPC: 1.25 cumulative IPC: 1.2421 (Simulation time: 1 hr 13 min 59 sec) 
Finished CPU 0 instructions: 50000003 cycles: 40254258 cumulative IPC: 1.2421 (Simulation time: 1 hr 13 min 59 sec) 

ChampSim completed all CPUs

Region of Interest Statistics

CPU 0 cumulative IPC: 1.2421 instructions: 50000003 cycles: 40254258
L1D TOTAL     ACCESS:   17522566  HIT:   16456083  MISS:    1066483
L1D LOAD      ACCESS:    6410961  HIT:    5914857  MISS:     496104
L1D RFO       ACCESS:    4935417  HIT:    4855490  MISS:      79927
L1D PREFETCH  ACCESS:    6176188  HIT:    5685736  MISS:     490452
L1D WRITEBACK ACCESS:          0  HIT:          0  MISS:          0
L1D PREFETCH  REQUESTED:    6445340  ISSUED:    6346713  USEFUL:     138867  USELESS:     351594
L1D AVERAGE MISS LATENCY: 41.9607 cycles
L1I TOTAL     ACCESS:   28652812  HIT:   26888143  MISS:    1764669
L1I LOAD      ACCESS:    8612405  HIT:    8380784  MISS:     231621
L1I RFO       ACCESS:          0  HIT:          0  MISS:          0
L1I PREFETCH  ACCESS:   20040407  HIT:   18507359  MISS:    1533048
L1I WRITEBACK ACCESS:          0  HIT:          0  MISS:          0
L1I PREFETCH  REQUESTED:   25667948  ISSUED:   25667948  USEFUL:    1189427  USELESS:     343611
L1I AVERAGE MISS LATENCY: 33.2893 cycles
L2C TOTAL     ACCESS:    3768249  HIT:    2418559  MISS:    1349690
L2C LOAD      ACCESS:     671013  HIT:     285585  MISS:     385428
L2C RFO       ACCESS:      78735  HIT:      31081  MISS:      47654
L2C PREFETCH  ACCESS:    2742712  HIT:    1827678  MISS:     915034
L2C WRITEBACK ACCESS:     275789  HIT:     274215  MISS:       1574
L2C PREFETCH  REQUESTED:    3955126  ISSUED:    3948395  USEFUL:      42947  USELESS:     871434
L2C AVERAGE MISS LATENCY: 46.2006 cycles
LLC TOTAL     ACCESS:    2815670  HIT:    2637231  MISS:     178439
LLC LOAD      ACCESS:     371532  HIT:     346744  MISS:      24788
LLC RFO       ACCESS:      47640  HIT:      37505  MISS:      10135
LLC PREFETCH  ACCESS:    2223749  HIT:    2080625  MISS:     143124
LLC WRITEBACK ACCESS:     172749  HIT:     172357  MISS:        392
LLC PREFETCH  REQUESTED:          0  ISSUED:          0  USEFUL:      14507  USELESS:     126113
LLC AVERAGE MISS LATENCY: 175.527 cycles
Major fault: 0 Minor fault: 6204
CPU 0 L1I EPI prefetcher final stats
CPU 0 L1D next line prefetcher final stats

DRAM Statistics
 CHANNEL 0
 RQ ROW_BUFFER_HIT:      30456  ROW_BUFFER_MISS:     147578
 DBUS_CONGESTED:      81730
 WQ ROW_BUFFER_HIT:      12269  ROW_BUFFER_MISS:      52876  FULL:          0

 AVG_CONGESTED_CYCLE: 5

CPU 0 Branch Prediction Accuracy: 99.4114% MPKI: 1.0933 Average ROB Occupancy at Mispredict: 118.094

Branch types
NOT_BRANCH: 40713269 81.4265%
BRANCH_DIRECT_JUMP: 463701 0.927402%
BRANCH_INDIRECT: 146544 0.293088%
BRANCH_CONDITIONAL: 6981954 13.9639%
BRANCH_DIRECT_CALL: 665005 1.33001%
BRANCH_INDIRECT_CALL: 165152 0.330304%
BRANCH_RETURN: 864314 1.72863%
BRANCH_OTHER: 0 0%

