Initialize SIGNATURE TABLE
ST_SET: 1
ST_WAY: 256
ST_TAG_BIT: 16
ST_TAG_MASK: ffff

Initialize PATTERN TABLE
PT_SET: 512
PT_WAY: 4
SIG_DELTA_BIT: 7
C_SIG_BIT: 4
C_DELTA_BIT: 4

Initialize PREFETCH FILTER
FILTER_SET: 1024

*** ChampSim Multicore Out-of-Order Simulator ***

Warmup Instructions: 50000000
Simulation Instructions: 50000000
Number of CPUs: 1
LLC sets: 2048
LLC ways: 16
Off-chip DRAM Size: 4096 MB Channels: 1 Width: 64-bit Data Rate: 3200 MT/s

CPU 0 runs /home/sankara2004/240C/hw1/ChampSim_2/ChampSim/ipc1_public/server_003.champsimtrace.xz
LHT KB: 126.25
SCC KB: 1.56
Total KB: 127.81
CPU 0 L1D next line prefetcher
Heartbeat CPU 0 instructions: 10000002 cycles: 3228375 heartbeat IPC: 3.09753 cumulative IPC: 3.09753 (Simulation time: 0 hr 5 min 56 sec) 
Heartbeat CPU 0 instructions: 20000000 cycles: 6550668 heartbeat IPC: 3.00997 cumulative IPC: 3.05312 (Simulation time: 0 hr 11 min 45 sec) 
Heartbeat CPU 0 instructions: 30000000 cycles: 9765678 heartbeat IPC: 3.11041 cumulative IPC: 3.07198 (Simulation time: 0 hr 17 min 36 sec) 
Heartbeat CPU 0 instructions: 40000001 cycles: 13183858 heartbeat IPC: 2.92553 cumulative IPC: 3.03401 (Simulation time: 0 hr 23 min 25 sec) 
Heartbeat CPU 0 instructions: 50000003 cycles: 16903039 heartbeat IPC: 2.68876 cumulative IPC: 2.95805 (Simulation time: 0 hr 29 min 10 sec) 

Warmup complete CPU 0 instructions: 50000003 cycles: 16903039 (Simulation time: 0 hr 29 min 10 sec) 

Heartbeat CPU 0 instructions: 60000000 cycles: 25877295 heartbeat IPC: 1.1143 cumulative IPC: 1.1143 (Simulation time: 0 hr 36 min 48 sec) 
Heartbeat CPU 0 instructions: 70000003 cycles: 34907137 heartbeat IPC: 1.10744 cumulative IPC: 1.11086 (Simulation time: 0 hr 44 min 36 sec) 
Heartbeat CPU 0 instructions: 80000000 cycles: 45052253 heartbeat IPC: 0.985696 cumulative IPC: 1.06575 (Simulation time: 0 hr 52 min 28 sec) 
Heartbeat CPU 0 instructions: 90000003 cycles: 55301152 heartbeat IPC: 0.975715 cumulative IPC: 1.04172 (Simulation time: 1 hr 0 min 7 sec) 
Heartbeat CPU 0 instructions: 100000001 cycles: 66159568 heartbeat IPC: 0.920944 cumulative IPC: 1.01509 (Simulation time: 1 hr 7 min 37 sec) 
Finished CPU 0 instructions: 50000002 cycles: 49256530 cumulative IPC: 1.01509 (Simulation time: 1 hr 7 min 37 sec) 

ChampSim completed all CPUs

Region of Interest Statistics

CPU 0 cumulative IPC: 1.01509 instructions: 50000002 cycles: 49256530
L1D TOTAL     ACCESS:   20013303  HIT:   18872329  MISS:    1140974
L1D LOAD      ACCESS:    7861257  HIT:    7331380  MISS:     529877
L1D RFO       ACCESS:    4553323  HIT:    4435871  MISS:     117452
L1D PREFETCH  ACCESS:    7598723  HIT:    7105078  MISS:     493645
L1D WRITEBACK ACCESS:          0  HIT:          0  MISS:          0
L1D PREFETCH  REQUESTED:    7922065  ISSUED:    7830322  USEFUL:     155377  USELESS:     338227
L1D AVERAGE MISS LATENCY: 55.5375 cycles
L1I TOTAL     ACCESS:   19638736  HIT:   17661941  MISS:    1976795
L1I LOAD      ACCESS:    9302578  HIT:    9084106  MISS:     218472
L1I RFO       ACCESS:          0  HIT:          0  MISS:          0
L1I PREFETCH  ACCESS:   10336158  HIT:    8577835  MISS:    1758323
L1I WRITEBACK ACCESS:          0  HIT:          0  MISS:          0
L1I PREFETCH  REQUESTED:   13778584  ISSUED:   13778584  USEFUL:     808391  USELESS:     949823
L1I AVERAGE MISS LATENCY: 29.296 cycles
L2C TOTAL     ACCESS:    4218142  HIT:    3162642  MISS:    1055500
L2C LOAD      ACCESS:     562145  HIT:     310022  MISS:     252123
L2C RFO       ACCESS:     114669  HIT:      39478  MISS:      75191
L2C PREFETCH  ACCESS:    3257066  HIT:    2530801  MISS:     726265
L2C WRITEBACK ACCESS:     284262  HIT:     282341  MISS:       1921
L2C PREFETCH  REQUESTED:    2620919  ISSUED:    2618742  USEFUL:      31102  USELESS:     692838
L2C AVERAGE MISS LATENCY: 80.5092 cycles
LLC TOTAL     ACCESS:    1940090  HIT:    1565626  MISS:     374464
LLC LOAD      ACCESS:     251953  HIT:     187902  MISS:      64051
LLC RFO       ACCESS:      75185  HIT:      33127  MISS:      42058
LLC PREFETCH  ACCESS:    1442705  HIT:    1175325  MISS:     267380
LLC WRITEBACK ACCESS:     170247  HIT:     169272  MISS:        975
LLC PREFETCH  REQUESTED:          0  ISSUED:          0  USEFUL:      25469  USELESS:     232206
LLC AVERAGE MISS LATENCY: 191.266 cycles
Major fault: 0 Minor fault: 7793
CPU 0 L1D next line prefetcher final stats

DRAM Statistics
 CHANNEL 0
 RQ ROW_BUFFER_HIT:      83822  ROW_BUFFER_MISS:     289625
 DBUS_CONGESTED:     191022
 WQ ROW_BUFFER_HIT:      21852  ROW_BUFFER_MISS:      79372  FULL:          0

 AVG_CONGESTED_CYCLE: 5

CPU 0 Branch Prediction Accuracy: 95.439% MPKI: 9.02702 Average ROB Occupancy at Mispredict: 66.9067

Branch types
NOT_BRANCH: 40104088 80.2082%
BRANCH_DIRECT_JUMP: 497928 0.995856%
BRANCH_INDIRECT: 130587 0.261174%
BRANCH_CONDITIONAL: 7219018 14.438%
BRANCH_DIRECT_CALL: 625807 1.25161%
BRANCH_INDIRECT_CALL: 389787 0.779574%
BRANCH_RETURN: 1032747 2.06549%
BRANCH_OTHER: 0 0%

