Initialize SIGNATURE TABLE
ST_SET: 1
ST_WAY: 256
ST_TAG_BIT: 16
ST_TAG_MASK: ffff

Initialize PATTERN TABLE
PT_SET: 512
PT_WAY: 4
SIG_DELTA_BIT: 7
C_SIG_BIT: 4
C_DELTA_BIT: 4

Initialize PREFETCH FILTER
FILTER_SET: 1024

*** ChampSim Multicore Out-of-Order Simulator ***

Warmup Instructions: 50000000
Simulation Instructions: 50000000
Number of CPUs: 1
LLC sets: 2048
LLC ways: 16
Off-chip DRAM Size: 4096 MB Channels: 1 Width: 64-bit Data Rate: 3200 MT/s

CPU 0 runs /home/sankara2004/240C/hw1/ChampSim_2/ChampSim/ipc1_public/server_002.champsimtrace.xz
LHT KB: 126.25
SCC KB: 1.56
Total KB: 127.81
CPU 0 L1D next line prefetcher
Heartbeat CPU 0 instructions: 10000000 cycles: 3581246 heartbeat IPC: 2.79232 cumulative IPC: 2.79232 (Simulation time: 0 hr 5 min 53 sec) 
Heartbeat CPU 0 instructions: 20000002 cycles: 7170610 heartbeat IPC: 2.78601 cumulative IPC: 2.78916 (Simulation time: 0 hr 11 min 36 sec) 
Heartbeat CPU 0 instructions: 30000000 cycles: 10711363 heartbeat IPC: 2.82426 cumulative IPC: 2.80076 (Simulation time: 0 hr 17 min 20 sec) 
Heartbeat CPU 0 instructions: 40000000 cycles: 14261608 heartbeat IPC: 2.81671 cumulative IPC: 2.80473 (Simulation time: 0 hr 23 min 0 sec) 
Heartbeat CPU 0 instructions: 50000001 cycles: 17809379 heartbeat IPC: 2.81867 cumulative IPC: 2.80751 (Simulation time: 0 hr 28 min 35 sec) 

Warmup complete CPU 0 instructions: 50000001 cycles: 17809379 (Simulation time: 0 hr 28 min 35 sec) 

Heartbeat CPU 0 instructions: 60000000 cycles: 24248426 heartbeat IPC: 1.55302 cumulative IPC: 1.55302 (Simulation time: 0 hr 36 min 6 sec) 
Heartbeat CPU 0 instructions: 70000003 cycles: 30684491 heartbeat IPC: 1.55374 cumulative IPC: 1.55338 (Simulation time: 0 hr 43 min 56 sec) 
Heartbeat CPU 0 instructions: 80000003 cycles: 37122853 heartbeat IPC: 1.55319 cumulative IPC: 1.55332 (Simulation time: 0 hr 51 min 52 sec) 
Heartbeat CPU 0 instructions: 90000002 cycles: 43559295 heartbeat IPC: 1.55365 cumulative IPC: 1.5534 (Simulation time: 0 hr 59 min 37 sec) 
Heartbeat CPU 0 instructions: 100000003 cycles: 49994802 heartbeat IPC: 1.55388 cumulative IPC: 1.5535 (Simulation time: 1 hr 7 min 15 sec) 
Finished CPU 0 instructions: 50000002 cycles: 32185423 cumulative IPC: 1.5535 (Simulation time: 1 hr 7 min 15 sec) 

ChampSim completed all CPUs

Region of Interest Statistics

CPU 0 cumulative IPC: 1.5535 instructions: 50000002 cycles: 32185423
L1D TOTAL     ACCESS:   21526229  HIT:   21525420  MISS:        809
L1D LOAD      ACCESS:    6602812  HIT:    6602436  MISS:        376
L1D RFO       ACCESS:    8433008  HIT:    8432896  MISS:        112
L1D PREFETCH  ACCESS:    6490409  HIT:    6490088  MISS:        321
L1D WRITEBACK ACCESS:          0  HIT:          0  MISS:          0
L1D PREFETCH  REQUESTED:    6602864  ISSUED:    6497799  USEFUL:         91  USELESS:        231
L1D AVERAGE MISS LATENCY: 35.0247 cycles
L1I TOTAL     ACCESS:   26998551  HIT:   26180613  MISS:     817938
L1I LOAD      ACCESS:    9808741  HIT:    9723957  MISS:      84784
L1I RFO       ACCESS:          0  HIT:          0  MISS:          0
L1I PREFETCH  ACCESS:   17189810  HIT:   16456656  MISS:     733154
L1I WRITEBACK ACCESS:          0  HIT:          0  MISS:          0
L1I PREFETCH  REQUESTED:   18895147  ISSUED:   18895147  USEFUL:     641062  USELESS:      92089
L1I AVERAGE MISS LATENCY: 12.6075 cycles
L2C TOTAL     ACCESS:     942036  HIT:     941741  MISS:        295
L2C LOAD      ACCESS:       1962  HIT:       1892  MISS:         70
L2C RFO       ACCESS:        112  HIT:        103  MISS:          9
L2C PREFETCH  ACCESS:     939626  HIT:     939410  MISS:        216
L2C WRITEBACK ACCESS:        336  HIT:        336  MISS:          0
L2C PREFETCH  REQUESTED:     207217  ISSUED:     207217  USEFUL:         46  USELESS:        148
L2C AVERAGE MISS LATENCY: 75.6 cycles
LLC TOTAL     ACCESS:      60772  HIT:      60255  MISS:        517
LLC LOAD      ACCESS:         70  HIT:         56  MISS:         14
LLC RFO       ACCESS:          9  HIT:          8  MISS:          1
LLC PREFETCH  ACCESS:      60630  HIT:      60128  MISS:        502
LLC WRITEBACK ACCESS:         63  HIT:         63  MISS:          0
LLC PREFETCH  REQUESTED:          0  ISSUED:          0  USEFUL:          7  USELESS:        155
LLC AVERAGE MISS LATENCY: 213.681 cycles
Major fault: 0 Minor fault: 1880
CPU 0 L1D next line prefetcher final stats

DRAM Statistics
 CHANNEL 0
 RQ ROW_BUFFER_HIT:         51  ROW_BUFFER_MISS:        466
 DBUS_CONGESTED:        238
 WQ ROW_BUFFER_HIT:         47  ROW_BUFFER_MISS:        294  FULL:          0

 AVG_CONGESTED_CYCLE: 5

CPU 0 Branch Prediction Accuracy: 99.8789% MPKI: 0.20388 Average ROB Occupancy at Mispredict: 282.481

Branch types
NOT_BRANCH: 41580695 83.1614%
BRANCH_DIRECT_JUMP: 461630 0.92326%
BRANCH_INDIRECT: 0 0%
BRANCH_CONDITIONAL: 5376437 10.7529%
BRANCH_DIRECT_CALL: 1175775 2.35155%
BRANCH_INDIRECT_CALL: 114840 0.22968%
BRANCH_RETURN: 1290625 2.58125%
BRANCH_OTHER: 0 0%

