Initialize SIGNATURE TABLE
ST_SET: 1
ST_WAY: 256
ST_TAG_BIT: 16
ST_TAG_MASK: ffff

Initialize PATTERN TABLE
PT_SET: 512
PT_WAY: 4
SIG_DELTA_BIT: 7
C_SIG_BIT: 4
C_DELTA_BIT: 4

Initialize PREFETCH FILTER
FILTER_SET: 1024

*** ChampSim Multicore Out-of-Order Simulator ***

Warmup Instructions: 50000000
Simulation Instructions: 50000000
Number of CPUs: 1
LLC sets: 2048
LLC ways: 16
Off-chip DRAM Size: 4096 MB Channels: 1 Width: 64-bit Data Rate: 3200 MT/s

CPU 0 runs /home/sankara2004/240C/hw1/ChampSim_2/ChampSim/ipc1_public/server_037.champsimtrace.xz
CPU 0 EPI prefetcher
CPU 0 L1D next line prefetcher
Heartbeat CPU 0 instructions: 10000001 cycles: 3319403 heartbeat IPC: 3.01259 cumulative IPC: 3.01259 (Simulation time: 0 hr 6 min 36 sec) 
Heartbeat CPU 0 instructions: 20000002 cycles: 6635997 heartbeat IPC: 3.01514 cumulative IPC: 3.01387 (Simulation time: 0 hr 13 min 10 sec) 
Heartbeat CPU 0 instructions: 30000003 cycles: 10000500 heartbeat IPC: 2.97221 cumulative IPC: 2.99985 (Simulation time: 0 hr 19 min 48 sec) 
Heartbeat CPU 0 instructions: 40000000 cycles: 13318925 heartbeat IPC: 3.01348 cumulative IPC: 3.00325 (Simulation time: 0 hr 26 min 24 sec) 
Heartbeat CPU 0 instructions: 50000003 cycles: 16636955 heartbeat IPC: 3.01384 cumulative IPC: 3.00536 (Simulation time: 0 hr 33 min 5 sec) 

Warmup complete CPU 0 instructions: 50000003 cycles: 16636955 (Simulation time: 0 hr 33 min 5 sec) 

Heartbeat CPU 0 instructions: 60000001 cycles: 23023017 heartbeat IPC: 1.56591 cumulative IPC: 1.56591 (Simulation time: 0 hr 41 min 22 sec) 
Heartbeat CPU 0 instructions: 70000000 cycles: 29512911 heartbeat IPC: 1.54086 cumulative IPC: 1.55328 (Simulation time: 0 hr 49 min 47 sec) 
Heartbeat CPU 0 instructions: 80000000 cycles: 35888921 heartbeat IPC: 1.56838 cumulative IPC: 1.55828 (Simulation time: 0 hr 58 min 16 sec) 
Heartbeat CPU 0 instructions: 90000002 cycles: 42284577 heartbeat IPC: 1.56356 cumulative IPC: 1.5596 (Simulation time: 1 hr 6 min 29 sec) 
*** Reached end of trace for Core: 0 Repeating trace: /home/sankara2004/240C/hw1/ChampSim_2/ChampSim/ipc1_public/server_037.champsimtrace.xz
Heartbeat CPU 0 instructions: 100000000 cycles: 48671592 heartbeat IPC: 1.56568 cumulative IPC: 1.56081 (Simulation time: 1 hr 14 min 7 sec) 
Finished CPU 0 instructions: 50000001 cycles: 32034638 cumulative IPC: 1.56081 (Simulation time: 1 hr 14 min 7 sec) 

ChampSim completed all CPUs

Region of Interest Statistics

CPU 0 cumulative IPC: 1.56081 instructions: 50000001 cycles: 32034638
L1D TOTAL     ACCESS:   18686660  HIT:   17708694  MISS:     977966
L1D LOAD      ACCESS:    6359221  HIT:    5867655  MISS:     491566
L1D RFO       ACCESS:    6205188  HIT:    6141182  MISS:      64006
L1D PREFETCH  ACCESS:    6122251  HIT:    5699857  MISS:     422394
L1D WRITEBACK ACCESS:          0  HIT:          0  MISS:          0
L1D PREFETCH  REQUESTED:    6395704  ISSUED:    6242615  USEFUL:     117315  USELESS:     305084
L1D AVERAGE MISS LATENCY: 28.8929 cycles
L1I TOTAL     ACCESS:   29899556  HIT:   25635767  MISS:    4263789
L1I LOAD      ACCESS:    9418639  HIT:    9378288  MISS:      40351
L1I RFO       ACCESS:          0  HIT:          0  MISS:          0
L1I PREFETCH  ACCESS:   20480917  HIT:   16257479  MISS:    4223438
L1I WRITEBACK ACCESS:          0  HIT:          0  MISS:          0
L1I PREFETCH  REQUESTED:   24141580  ISSUED:   24141580  USEFUL:    3960158  USELESS:     263314
L1I AVERAGE MISS LATENCY: 15.0241 cycles
L2C TOTAL     ACCESS:    7913296  HIT:    7605198  MISS:     308098
L2C LOAD      ACCESS:     522358  HIT:     385060  MISS:     137298
L2C RFO       ACCESS:      63676  HIT:      36945  MISS:      26731
L2C PREFETCH  ACCESS:    7037796  HIT:    6894650  MISS:     143146
L2C WRITEBACK ACCESS:     289466  HIT:     288543  MISS:        923
L2C PREFETCH  REQUESTED:    7091240  ISSUED:    7074944  USEFUL:       6596  USELESS:     136353
L2C AVERAGE MISS LATENCY: 45.9413 cycles
LLC TOTAL     ACCESS:    1576376  HIT:    1521199  MISS:      55177
LLC LOAD      ACCESS:     137280  HIT:     124278  MISS:      13002
LLC RFO       ACCESS:      26727  HIT:      21944  MISS:       4783
LLC PREFETCH  ACCESS:    1275749  HIT:    1238967  MISS:      36782
LLC WRITEBACK ACCESS:     136620  HIT:     136010  MISS:        610
LLC PREFETCH  REQUESTED:          0  ISSUED:          0  USEFUL:       3781  USELESS:      33074
LLC AVERAGE MISS LATENCY: 164.829 cycles
Major fault: 0 Minor fault: 5653
CPU 0 L1I EPI prefetcher final stats
CPU 0 L1D next line prefetcher final stats

DRAM Statistics
 CHANNEL 0
 RQ ROW_BUFFER_HIT:      10221  ROW_BUFFER_MISS:      44343
 DBUS_CONGESTED:      22677
 WQ ROW_BUFFER_HIT:       1225  ROW_BUFFER_MISS:      10515  FULL:          0

 AVG_CONGESTED_CYCLE: 4

CPU 0 Branch Prediction Accuracy: 99.913% MPKI: 0.15656 Average ROB Occupancy at Mispredict: 226.077

Branch types
NOT_BRANCH: 41001718 82.0034%
BRANCH_DIRECT_JUMP: 541941 1.08388%
BRANCH_INDIRECT: 59716 0.119432%
BRANCH_CONDITIONAL: 5916852 11.8337%
BRANCH_DIRECT_CALL: 1005464 2.01093%
BRANCH_INDIRECT_CALL: 234433 0.468866%
BRANCH_RETURN: 1239877 2.47975%
BRANCH_OTHER: 0 0%

