Initialize SIGNATURE TABLE
ST_SET: 1
ST_WAY: 256
ST_TAG_BIT: 16
ST_TAG_MASK: ffff

Initialize PATTERN TABLE
PT_SET: 512
PT_WAY: 4
SIG_DELTA_BIT: 7
C_SIG_BIT: 4
C_DELTA_BIT: 4

Initialize PREFETCH FILTER
FILTER_SET: 1024

*** ChampSim Multicore Out-of-Order Simulator ***

Warmup Instructions: 50000000
Simulation Instructions: 50000000
Number of CPUs: 1
LLC sets: 2048
LLC ways: 16
Off-chip DRAM Size: 4096 MB Channels: 1 Width: 64-bit Data Rate: 3200 MT/s

CPU 0 runs /home/sankara2004/240C/hw1/ChampSim_2/ChampSim/ipc1_public/server_024.champsimtrace.xz
LHT KB: 126.25
SCC KB: 1.56
Total KB: 127.81
CPU 0 L1D next line prefetcher
Heartbeat CPU 0 instructions: 10000000 cycles: 3501251 heartbeat IPC: 2.85612 cumulative IPC: 2.85612 (Simulation time: 0 hr 5 min 53 sec) 
Heartbeat CPU 0 instructions: 20000002 cycles: 6995147 heartbeat IPC: 2.86213 cumulative IPC: 2.85913 (Simulation time: 0 hr 11 min 42 sec) 
Heartbeat CPU 0 instructions: 30000000 cycles: 10500362 heartbeat IPC: 2.85289 cumulative IPC: 2.85704 (Simulation time: 0 hr 17 min 32 sec) 
Heartbeat CPU 0 instructions: 40000000 cycles: 14002847 heartbeat IPC: 2.85512 cumulative IPC: 2.85656 (Simulation time: 0 hr 23 min 18 sec) 
Heartbeat CPU 0 instructions: 50000001 cycles: 17494643 heartbeat IPC: 2.86386 cumulative IPC: 2.85802 (Simulation time: 0 hr 29 min 2 sec) 

Warmup complete CPU 0 instructions: 50000001 cycles: 17494643 (Simulation time: 0 hr 29 min 2 sec) 

Heartbeat CPU 0 instructions: 60000003 cycles: 24382944 heartbeat IPC: 1.45174 cumulative IPC: 1.45174 (Simulation time: 0 hr 36 min 38 sec) 
Heartbeat CPU 0 instructions: 70000000 cycles: 31326957 heartbeat IPC: 1.44009 cumulative IPC: 1.44589 (Simulation time: 0 hr 44 min 22 sec) 
*** Reached end of trace for Core: 0 Repeating trace: /home/sankara2004/240C/hw1/ChampSim_2/ChampSim/ipc1_public/server_024.champsimtrace.xz
Heartbeat CPU 0 instructions: 80000003 cycles: 38246193 heartbeat IPC: 1.44525 cumulative IPC: 1.44568 (Simulation time: 0 hr 52 min 15 sec) 
Heartbeat CPU 0 instructions: 90000003 cycles: 45222382 heartbeat IPC: 1.43345 cumulative IPC: 1.4426 (Simulation time: 0 hr 59 min 54 sec) 
Heartbeat CPU 0 instructions: 100000002 cycles: 52148484 heartbeat IPC: 1.44381 cumulative IPC: 1.44284 (Simulation time: 1 hr 7 min 21 sec) 
Finished CPU 0 instructions: 50000001 cycles: 34653841 cumulative IPC: 1.44284 (Simulation time: 1 hr 7 min 21 sec) 

ChampSim completed all CPUs

Region of Interest Statistics

CPU 0 cumulative IPC: 1.44284 instructions: 50000001 cycles: 34653841
L1D TOTAL     ACCESS:   19809034  HIT:   18291315  MISS:    1517719
L1D LOAD      ACCESS:    6995115  HIT:    6313869  MISS:     681246
L1D RFO       ACCESS:    6150443  HIT:    5876664  MISS:     273779
L1D PREFETCH  ACCESS:    6663476  HIT:    6100782  MISS:     562694
L1D WRITEBACK ACCESS:          0  HIT:          0  MISS:          0
L1D PREFETCH  REQUESTED:    7050126  ISSUED:    6931310  USEFUL:     135053  USELESS:     427646
L1D AVERAGE MISS LATENCY: 26.3075 cycles
L1I TOTAL     ACCESS:   23388726  HIT:   18640287  MISS:    4748439
L1I LOAD      ACCESS:    9234661  HIT:    8755403  MISS:     479258
L1I RFO       ACCESS:          0  HIT:          0  MISS:          0
L1I PREFETCH  ACCESS:   14154065  HIT:    9884884  MISS:    4269181
L1I WRITEBACK ACCESS:          0  HIT:          0  MISS:          0
L1I PREFETCH  REQUESTED:   16464085  ISSUED:   16464085  USEFUL:    2210840  USELESS:    2058322
L1I AVERAGE MISS LATENCY: 15.2559 cycles
L2C TOTAL     ACCESS:    8469509  HIT:    7726238  MISS:     743271
L2C LOAD      ACCESS:     692777  HIT:     541697  MISS:     151080
L2C RFO       ACCESS:     272135  HIT:     178737  MISS:      93398
L2C PREFETCH  ACCESS:    6984517  HIT:    6490917  MISS:     493600
L2C WRITEBACK ACCESS:     520080  HIT:     514887  MISS:       5193
L2C PREFETCH  REQUESTED:    4703314  ISSUED:    4698427  USEFUL:      20215  USELESS:     472358
L2C AVERAGE MISS LATENCY: 42.1138 cycles
LLC TOTAL     ACCESS:    2143368  HIT:    2093016  MISS:      50352
LLC LOAD      ACCESS:     150843  HIT:     145790  MISS:       5053
LLC RFO       ACCESS:      93374  HIT:      71099  MISS:      22275
LLC PREFETCH  ACCESS:    1743882  HIT:    1721062  MISS:      22820
LLC WRITEBACK ACCESS:     155269  HIT:     155065  MISS:        204
LLC PREFETCH  REQUESTED:          0  ISSUED:          0  USEFUL:       1734  USELESS:      21131
LLC AVERAGE MISS LATENCY: 201.944 cycles
Major fault: 0 Minor fault: 2378
CPU 0 L1D next line prefetcher final stats

DRAM Statistics
 CHANNEL 0
 RQ ROW_BUFFER_HIT:      17578  ROW_BUFFER_MISS:      32566
 DBUS_CONGESTED:      37090
 WQ ROW_BUFFER_HIT:       2643  ROW_BUFFER_MISS:      22872  FULL:          0

 AVG_CONGESTED_CYCLE: 6

CPU 0 Branch Prediction Accuracy: 99.7477% MPKI: 0.46156 Average ROB Occupancy at Mispredict: 161.57

Branch types
NOT_BRANCH: 40853583 81.7072%
BRANCH_DIRECT_JUMP: 566813 1.13363%
BRANCH_INDIRECT: 197171 0.394342%
BRANCH_CONDITIONAL: 6308403 12.6168%
BRANCH_DIRECT_CALL: 876399 1.7528%
BRANCH_INDIRECT_CALL: 160491 0.320982%
BRANCH_RETURN: 1036885 2.07377%
BRANCH_OTHER: 0 0%

