Initialize SIGNATURE TABLE
ST_SET: 1
ST_WAY: 256
ST_TAG_BIT: 16
ST_TAG_MASK: ffff

Initialize PATTERN TABLE
PT_SET: 512
PT_WAY: 4
SIG_DELTA_BIT: 7
C_SIG_BIT: 4
C_DELTA_BIT: 4

Initialize PREFETCH FILTER
FILTER_SET: 1024

*** ChampSim Multicore Out-of-Order Simulator ***

Warmup Instructions: 50000000
Simulation Instructions: 50000000
Number of CPUs: 1
LLC sets: 2048
LLC ways: 16
Off-chip DRAM Size: 4096 MB Channels: 1 Width: 64-bit Data Rate: 3200 MT/s

CPU 0 runs /home/sankara2004/240C/hw1/ChampSim_2/ChampSim/ipc1_public/server_032.champsimtrace.xz
LHT KB: 126.25
SCC KB: 1.56
Total KB: 127.81
CPU 0 L1D next line prefetcher
Heartbeat CPU 0 instructions: 10000002 cycles: 3522668 heartbeat IPC: 2.83876 cumulative IPC: 2.83876 (Simulation time: 0 hr 5 min 41 sec) 
Heartbeat CPU 0 instructions: 20000003 cycles: 7046431 heartbeat IPC: 2.83788 cumulative IPC: 2.83832 (Simulation time: 0 hr 11 min 19 sec) 
Heartbeat CPU 0 instructions: 30000000 cycles: 10569533 heartbeat IPC: 2.83841 cumulative IPC: 2.83835 (Simulation time: 0 hr 17 min 1 sec) 
Heartbeat CPU 0 instructions: 40000003 cycles: 14094242 heartbeat IPC: 2.83711 cumulative IPC: 2.83804 (Simulation time: 0 hr 22 min 40 sec) 
Heartbeat CPU 0 instructions: 50000000 cycles: 17617802 heartbeat IPC: 2.83804 cumulative IPC: 2.83804 (Simulation time: 0 hr 28 min 17 sec) 

Warmup complete CPU 0 instructions: 50000004 cycles: 17617803 (Simulation time: 0 hr 28 min 17 sec) 

Heartbeat CPU 0 instructions: 60000002 cycles: 24527395 heartbeat IPC: 1.44726 cumulative IPC: 1.44726 (Simulation time: 0 hr 35 min 38 sec) 
Heartbeat CPU 0 instructions: 70000000 cycles: 31431295 heartbeat IPC: 1.44846 cumulative IPC: 1.44786 (Simulation time: 0 hr 43 min 6 sec) 
*** Reached end of trace for Core: 0 Repeating trace: /home/sankara2004/240C/hw1/ChampSim_2/ChampSim/ipc1_public/server_032.champsimtrace.xz
Heartbeat CPU 0 instructions: 80000003 cycles: 38331589 heartbeat IPC: 1.44921 cumulative IPC: 1.44831 (Simulation time: 0 hr 50 min 41 sec) 
Heartbeat CPU 0 instructions: 90000002 cycles: 45207513 heartbeat IPC: 1.45435 cumulative IPC: 1.44982 (Simulation time: 0 hr 58 min 0 sec) 
Heartbeat CPU 0 instructions: 100000001 cycles: 52088456 heartbeat IPC: 1.45329 cumulative IPC: 1.45051 (Simulation time: 1 hr 5 min 12 sec) 
Finished CPU 0 instructions: 50000002 cycles: 34470655 cumulative IPC: 1.45051 (Simulation time: 1 hr 5 min 12 sec) 

ChampSim completed all CPUs

Region of Interest Statistics

CPU 0 cumulative IPC: 1.45051 instructions: 50000002 cycles: 34470655
L1D TOTAL     ACCESS:   20094183  HIT:   18265588  MISS:    1828595
L1D LOAD      ACCESS:    6903815  HIT:    6110824  MISS:     792991
L1D RFO       ACCESS:    6561999  HIT:    6266565  MISS:     295434
L1D PREFETCH  ACCESS:    6628369  HIT:    5888199  MISS:     740170
L1D WRITEBACK ACCESS:          0  HIT:          0  MISS:          0
L1D PREFETCH  REQUESTED:    6951029  ISSUED:    6819708  USEFUL:     170542  USELESS:     569629
L1D AVERAGE MISS LATENCY: 18.356 cycles
L1I TOTAL     ACCESS:   20934389  HIT:   16730704  MISS:    4203685
L1I LOAD      ACCESS:    9420101  HIT:    8537060  MISS:     883041
L1I RFO       ACCESS:          0  HIT:          0  MISS:          0
L1I PREFETCH  ACCESS:   11514288  HIT:    8193644  MISS:    3320644
L1I WRITEBACK ACCESS:          0  HIT:          0  MISS:          0
L1I PREFETCH  REQUESTED:   14442591  ISSUED:   14442591  USEFUL:    2367060  USELESS:     953551
L1I AVERAGE MISS LATENCY: 13.0848 cycles
L2C TOTAL     ACCESS:    8601284  HIT:    8128097  MISS:     473187
L2C LOAD      ACCESS:     862984  HIT:     775736  MISS:      87248
L2C RFO       ACCESS:     292730  HIT:     256743  MISS:      35987
L2C PREFETCH  ACCESS:    6809179  HIT:    6464662  MISS:     344517
L2C WRITEBACK ACCESS:     636391  HIT:     630956  MISS:       5435
L2C PREFETCH  REQUESTED:    4613732  ISSUED:    4608169  USEFUL:      12652  USELESS:     331787
L2C AVERAGE MISS LATENCY: 32.0553 cycles
LLC TOTAL     ACCESS:    1479295  HIT:    1473599  MISS:       5696
LLC LOAD      ACCESS:      87248  HIT:      86812  MISS:        436
LLC RFO       ACCESS:      35987  HIT:      35986  MISS:          1
LLC PREFETCH  ACCESS:    1272661  HIT:    1267419  MISS:       5242
LLC WRITEBACK ACCESS:      83399  HIT:      83382  MISS:         17
LLC PREFETCH  REQUESTED:          0  ISSUED:          0  USEFUL:        353  USELESS:       1801
LLC AVERAGE MISS LATENCY: 147.916 cycles
Major fault: 0 Minor fault: 1186
CPU 0 L1D next line prefetcher final stats

DRAM Statistics
 CHANNEL 0
 RQ ROW_BUFFER_HIT:       1439  ROW_BUFFER_MISS:       4240
 DBUS_CONGESTED:        569
 WQ ROW_BUFFER_HIT:          0  ROW_BUFFER_MISS:         23  FULL:          0

 AVG_CONGESTED_CYCLE: 4

CPU 0 Branch Prediction Accuracy: 99.8762% MPKI: 0.2296 Average ROB Occupancy at Mispredict: 173.964

Branch types
NOT_BRANCH: 40726083 81.4522%
BRANCH_DIRECT_JUMP: 508373 1.01675%
BRANCH_INDIRECT: 180051 0.360102%
BRANCH_CONDITIONAL: 5999650 11.9993%
BRANCH_DIRECT_CALL: 1086739 2.17348%
BRANCH_INDIRECT_CALL: 206109 0.412218%
BRANCH_RETURN: 1292836 2.58567%
BRANCH_OTHER: 0 0%

