Initialize SIGNATURE TABLE
ST_SET: 1
ST_WAY: 256
ST_TAG_BIT: 16
ST_TAG_MASK: ffff

Initialize PATTERN TABLE
PT_SET: 512
PT_WAY: 4
SIG_DELTA_BIT: 7
C_SIG_BIT: 4
C_DELTA_BIT: 4

Initialize PREFETCH FILTER
FILTER_SET: 1024

*** ChampSim Multicore Out-of-Order Simulator ***

Warmup Instructions: 50000000
Simulation Instructions: 50000000
Number of CPUs: 1
LLC sets: 2048
LLC ways: 16
Off-chip DRAM Size: 4096 MB Channels: 1 Width: 64-bit Data Rate: 3200 MT/s

CPU 0 runs /home/sankara2004/240C/hw1/ChampSim_2/ChampSim/ipc1_public/server_002.champsimtrace.xz
LHT KB: 126.25
SCC KB: 1.56
Total KB: 127.81
CPU 0 L1D next line prefetcher
Heartbeat CPU 0 instructions: 10000000 cycles: 3581188 heartbeat IPC: 2.79237 cumulative IPC: 2.79237 (Simulation time: 0 hr 5 min 46 sec) 
Heartbeat CPU 0 instructions: 20000002 cycles: 7170051 heartbeat IPC: 2.7864 cumulative IPC: 2.78938 (Simulation time: 0 hr 11 min 29 sec) 
Heartbeat CPU 0 instructions: 30000000 cycles: 10710778 heartbeat IPC: 2.82428 cumulative IPC: 2.80092 (Simulation time: 0 hr 17 min 16 sec) 
Heartbeat CPU 0 instructions: 40000000 cycles: 14261023 heartbeat IPC: 2.81671 cumulative IPC: 2.80485 (Simulation time: 0 hr 22 min 59 sec) 
Heartbeat CPU 0 instructions: 50000001 cycles: 17808794 heartbeat IPC: 2.81867 cumulative IPC: 2.8076 (Simulation time: 0 hr 28 min 47 sec) 

Warmup complete CPU 0 instructions: 50000001 cycles: 17808794 (Simulation time: 0 hr 28 min 47 sec) 

Heartbeat CPU 0 instructions: 60000000 cycles: 24249887 heartbeat IPC: 1.55253 cumulative IPC: 1.55253 (Simulation time: 0 hr 36 min 12 sec) 
Heartbeat CPU 0 instructions: 70000003 cycles: 30684936 heartbeat IPC: 1.55399 cumulative IPC: 1.55326 (Simulation time: 0 hr 43 min 45 sec) 
Heartbeat CPU 0 instructions: 80000003 cycles: 37122319 heartbeat IPC: 1.55343 cumulative IPC: 1.55332 (Simulation time: 0 hr 51 min 23 sec) 
Heartbeat CPU 0 instructions: 90000002 cycles: 43556954 heartbeat IPC: 1.55409 cumulative IPC: 1.55351 (Simulation time: 0 hr 58 min 46 sec) 
Heartbeat CPU 0 instructions: 100000003 cycles: 49991231 heartbeat IPC: 1.55418 cumulative IPC: 1.55364 (Simulation time: 1 hr 5 min 23 sec) 
Finished CPU 0 instructions: 50000002 cycles: 32182437 cumulative IPC: 1.55364 (Simulation time: 1 hr 5 min 23 sec) 

ChampSim completed all CPUs

Region of Interest Statistics

CPU 0 cumulative IPC: 1.55364 instructions: 50000002 cycles: 32182437
L1D TOTAL     ACCESS:   21519033  HIT:   21518225  MISS:        808
L1D LOAD      ACCESS:    6598979  HIT:    6598604  MISS:        375
L1D RFO       ACCESS:    8433129  HIT:    8433017  MISS:        112
L1D PREFETCH  ACCESS:    6486925  HIT:    6486604  MISS:        321
L1D WRITEBACK ACCESS:          0  HIT:          0  MISS:          0
L1D PREFETCH  REQUESTED:    6599035  ISSUED:    6494305  USEFUL:         91  USELESS:        231
L1D AVERAGE MISS LATENCY: 42.3119 cycles
L1I TOTAL     ACCESS:   22541755  HIT:   21829516  MISS:     712239
L1I LOAD      ACCESS:    9779927  HIT:    9486728  MISS:     293199
L1I RFO       ACCESS:          0  HIT:          0  MISS:          0
L1I PREFETCH  ACCESS:   12761828  HIT:   12342788  MISS:     419040
L1I WRITEBACK ACCESS:          0  HIT:          0  MISS:          0
L1I PREFETCH  REQUESTED:   14885682  ISSUED:   14885682  USEFUL:     389353  USELESS:      29681
L1I AVERAGE MISS LATENCY: 8.42059 cycles
L2C TOTAL     ACCESS:     858437  HIT:     858116  MISS:        321
L2C LOAD      ACCESS:       9485  HIT:       9425  MISS:         60
L2C RFO       ACCESS:        112  HIT:        108  MISS:          4
L2C PREFETCH  ACCESS:     848505  HIT:     848248  MISS:        257
L2C WRITEBACK ACCESS:        335  HIT:        335  MISS:          0
L2C PREFETCH  REQUESTED:     348142  ISSUED:     348134  USEFUL:         54  USELESS:        156
L2C AVERAGE MISS LATENCY: 148.875 cycles
LLC TOTAL     ACCESS:     135980  HIT:     135142  MISS:        838
LLC LOAD      ACCESS:         60  HIT:         49  MISS:         11
LLC RFO       ACCESS:          4  HIT:          2  MISS:          2
LLC PREFETCH  ACCESS:     135820  HIT:     134996  MISS:        824
LLC WRITEBACK ACCESS:         96  HIT:         95  MISS:          1
LLC PREFETCH  REQUESTED:          0  ISSUED:          0  USEFUL:          8  USELESS:        223
LLC AVERAGE MISS LATENCY: 636.199 cycles
Major fault: 0 Minor fault: 1872
CPU 0 L1D next line prefetcher final stats

DRAM Statistics
 CHANNEL 0
 RQ ROW_BUFFER_HIT:        150  ROW_BUFFER_MISS:        687
 DBUS_CONGESTED:        550
 WQ ROW_BUFFER_HIT:         73  ROW_BUFFER_MISS:        518  FULL:          0

 AVG_CONGESTED_CYCLE: 6

CPU 0 Branch Prediction Accuracy: 99.8789% MPKI: 0.20388 Average ROB Occupancy at Mispredict: 238.489

Branch types
NOT_BRANCH: 41580689 83.1614%
BRANCH_DIRECT_JUMP: 461630 0.92326%
BRANCH_INDIRECT: 0 0%
BRANCH_CONDITIONAL: 5376435 10.7529%
BRANCH_DIRECT_CALL: 1175774 2.35155%
BRANCH_INDIRECT_CALL: 114840 0.22968%
BRANCH_RETURN: 1290625 2.58125%
BRANCH_OTHER: 0 0%

