Initialize SIGNATURE TABLE
ST_SET: 1
ST_WAY: 256
ST_TAG_BIT: 16
ST_TAG_MASK: ffff

Initialize PATTERN TABLE
PT_SET: 512
PT_WAY: 4
SIG_DELTA_BIT: 7
C_SIG_BIT: 4
C_DELTA_BIT: 4

Initialize PREFETCH FILTER
FILTER_SET: 1024

*** ChampSim Multicore Out-of-Order Simulator ***

Warmup Instructions: 50000000
Simulation Instructions: 50000000
Number of CPUs: 1
LLC sets: 2048
LLC ways: 16
Off-chip DRAM Size: 4096 MB Channels: 1 Width: 64-bit Data Rate: 3200 MT/s

CPU 0 runs /home/sankara2004/240C/hw1/ChampSim_2/ChampSim/ipc1_public/server_033.champsimtrace.xz
CPU 0 EPI prefetcher
CPU 0 L1D next line prefetcher
Heartbeat CPU 0 instructions: 10000001 cycles: 3341923 heartbeat IPC: 2.99229 cumulative IPC: 2.99229 (Simulation time: 0 hr 6 min 33 sec) 
Heartbeat CPU 0 instructions: 20000002 cycles: 6682848 heartbeat IPC: 2.99318 cumulative IPC: 2.99274 (Simulation time: 0 hr 13 min 3 sec) 
Heartbeat CPU 0 instructions: 30000001 cycles: 10012927 heartbeat IPC: 3.00293 cumulative IPC: 2.99613 (Simulation time: 0 hr 19 min 37 sec) 
Heartbeat CPU 0 instructions: 40000000 cycles: 13352040 heartbeat IPC: 2.99481 cumulative IPC: 2.9958 (Simulation time: 0 hr 26 min 9 sec) 
Heartbeat CPU 0 instructions: 50000000 cycles: 16690445 heartbeat IPC: 2.99544 cumulative IPC: 2.99573 (Simulation time: 0 hr 32 min 40 sec) 

Warmup complete CPU 0 instructions: 50000004 cycles: 16690446 (Simulation time: 0 hr 32 min 40 sec) 

Heartbeat CPU 0 instructions: 60000000 cycles: 23257755 heartbeat IPC: 1.52269 cumulative IPC: 1.52269 (Simulation time: 0 hr 40 min 55 sec) 
Heartbeat CPU 0 instructions: 70000000 cycles: 29782016 heartbeat IPC: 1.53274 cumulative IPC: 1.5277 (Simulation time: 0 hr 49 min 17 sec) 
Heartbeat CPU 0 instructions: 80000000 cycles: 37139140 heartbeat IPC: 1.35923 cumulative IPC: 1.46709 (Simulation time: 0 hr 57 min 44 sec) 
Heartbeat CPU 0 instructions: 90000003 cycles: 43752096 heartbeat IPC: 1.51218 cumulative IPC: 1.47811 (Simulation time: 1 hr 5 min 59 sec) 
Heartbeat CPU 0 instructions: 100000003 cycles: 50335050 heartbeat IPC: 1.51907 cumulative IPC: 1.48612 (Simulation time: 1 hr 14 min 2 sec) 
Finished CPU 0 instructions: 50000003 cycles: 33644605 cumulative IPC: 1.48612 (Simulation time: 1 hr 14 min 2 sec) 

ChampSim completed all CPUs

Region of Interest Statistics

CPU 0 cumulative IPC: 1.48612 instructions: 50000003 cycles: 33644605
L1D TOTAL     ACCESS:   18231373  HIT:   16749106  MISS:    1482267
L1D LOAD      ACCESS:    6140698  HIT:    5457269  MISS:     683429
L1D RFO       ACCESS:    6164703  HIT:    6015483  MISS:     149220
L1D PREFETCH  ACCESS:    5925972  HIT:    5276354  MISS:     649618
L1D WRITEBACK ACCESS:          0  HIT:          0  MISS:          0
L1D PREFETCH  REQUESTED:    6182364  ISSUED:    6061779  USEFUL:     141387  USELESS:     508237
L1D AVERAGE MISS LATENCY: 23.7725 cycles
L1I TOTAL     ACCESS:   32070688  HIT:   28277265  MISS:    3793423
L1I LOAD      ACCESS:    9676736  HIT:    9625776  MISS:      50960
L1I RFO       ACCESS:          0  HIT:          0  MISS:          0
L1I PREFETCH  ACCESS:   22393952  HIT:   18651489  MISS:    3742463
L1I WRITEBACK ACCESS:          0  HIT:          0  MISS:          0
L1I PREFETCH  REQUESTED:   27875104  ISSUED:   27875104  USEFUL:    3289696  USELESS:     452748
L1I AVERAGE MISS LATENCY: 15.4882 cycles
L2C TOTAL     ACCESS:    7359099  HIT:    7065749  MISS:     293350
L2C LOAD      ACCESS:     709618  HIT:     588223  MISS:     121395
L2C RFO       ACCESS:     147852  HIT:     128395  MISS:      19457
L2C PREFETCH  ACCESS:    6135175  HIT:    5983798  MISS:     151377
L2C WRITEBACK ACCESS:     366454  HIT:     365333  MISS:       1121
L2C PREFETCH  REQUESTED:    6293371  ISSUED:    6268585  USEFUL:       9612  USELESS:     141241
L2C AVERAGE MISS LATENCY: 51.3005 cycles
LLC TOTAL     ACCESS:    2078561  HIT:    2012441  MISS:      66120
LLC LOAD      ACCESS:     121176  HIT:     107005  MISS:      14171
LLC RFO       ACCESS:      19457  HIT:      16802  MISS:       2655
LLC PREFETCH  ACCESS:    1834307  HIT:    1785329  MISS:      48978
LLC WRITEBACK ACCESS:     103621  HIT:     103305  MISS:        316
LLC PREFETCH  REQUESTED:          0  ISSUED:          0  USEFUL:       7309  USELESS:      40513
LLC AVERAGE MISS LATENCY: 177.13 cycles
Major fault: 0 Minor fault: 2482
CPU 0 L1I EPI prefetcher final stats
CPU 0 L1D next line prefetcher final stats

DRAM Statistics
 CHANNEL 0
 RQ ROW_BUFFER_HIT:       9888  ROW_BUFFER_MISS:      55911
 DBUS_CONGESTED:      27740
 WQ ROW_BUFFER_HIT:       3999  ROW_BUFFER_MISS:      17117  FULL:          0

 AVG_CONGESTED_CYCLE: 5

CPU 0 Branch Prediction Accuracy: 99.9029% MPKI: 0.19006 Average ROB Occupancy at Mispredict: 252.934

Branch types
NOT_BRANCH: 40217123 80.4342%
BRANCH_DIRECT_JUMP: 774600 1.5492%
BRANCH_INDIRECT: 108806 0.217612%
BRANCH_CONDITIONAL: 6379335 12.7587%
BRANCH_DIRECT_CALL: 1048809 2.09762%
BRANCH_INDIRECT_CALL: 211109 0.422218%
BRANCH_RETURN: 1259925 2.51985%
BRANCH_OTHER: 0 0%

