Initialize SIGNATURE TABLE
ST_SET: 1
ST_WAY: 256
ST_TAG_BIT: 16
ST_TAG_MASK: ffff

Initialize PATTERN TABLE
PT_SET: 512
PT_WAY: 4
SIG_DELTA_BIT: 7
C_SIG_BIT: 4
C_DELTA_BIT: 4

Initialize PREFETCH FILTER
FILTER_SET: 1024

*** ChampSim Multicore Out-of-Order Simulator ***

Warmup Instructions: 50000000
Simulation Instructions: 50000000
Number of CPUs: 1
LLC sets: 2048
LLC ways: 16
Off-chip DRAM Size: 4096 MB Channels: 1 Width: 64-bit Data Rate: 3200 MT/s

CPU 0 runs /home/sankara2004/240C/hw1/ChampSim_2/ChampSim/ipc1_public/server_012.champsimtrace.xz
CPU 0 EPI prefetcher
CPU 0 L1D next line prefetcher
Heartbeat CPU 0 instructions: 10000002 cycles: 3197498 heartbeat IPC: 3.12745 cumulative IPC: 3.12745 (Simulation time: 0 hr 6 min 22 sec) 
Heartbeat CPU 0 instructions: 20000002 cycles: 6397340 heartbeat IPC: 3.12515 cumulative IPC: 3.1263 (Simulation time: 0 hr 12 min 54 sec) 
Heartbeat CPU 0 instructions: 30000001 cycles: 9597742 heartbeat IPC: 3.12461 cumulative IPC: 3.12574 (Simulation time: 0 hr 19 min 32 sec) 
Heartbeat CPU 0 instructions: 40000000 cycles: 12804598 heartbeat IPC: 3.11832 cumulative IPC: 3.12388 (Simulation time: 0 hr 26 min 7 sec) 
Heartbeat CPU 0 instructions: 50000003 cycles: 16004866 heartbeat IPC: 3.12474 cumulative IPC: 3.12405 (Simulation time: 0 hr 32 min 39 sec) 

Warmup complete CPU 0 instructions: 50000003 cycles: 16004866 (Simulation time: 0 hr 32 min 40 sec) 

Heartbeat CPU 0 instructions: 60000002 cycles: 23030755 heartbeat IPC: 1.42331 cumulative IPC: 1.42331 (Simulation time: 0 hr 40 min 56 sec) 
Heartbeat CPU 0 instructions: 70000000 cycles: 30069961 heartbeat IPC: 1.42061 cumulative IPC: 1.42196 (Simulation time: 0 hr 49 min 24 sec) 
Heartbeat CPU 0 instructions: 80000003 cycles: 37106523 heartbeat IPC: 1.42115 cumulative IPC: 1.42169 (Simulation time: 0 hr 58 min 19 sec) 
Heartbeat CPU 0 instructions: 90000001 cycles: 44377650 heartbeat IPC: 1.3753 cumulative IPC: 1.4098 (Simulation time: 1 hr 6 min 47 sec) 
Heartbeat CPU 0 instructions: 100000002 cycles: 51534958 heartbeat IPC: 1.39717 cumulative IPC: 1.40726 (Simulation time: 1 hr 15 min 12 sec) 
Finished CPU 0 instructions: 50000001 cycles: 35530093 cumulative IPC: 1.40726 (Simulation time: 1 hr 15 min 12 sec) 

ChampSim completed all CPUs

Region of Interest Statistics

CPU 0 cumulative IPC: 1.40726 instructions: 50000001 cycles: 35530093
L1D TOTAL     ACCESS:   17273286  HIT:   16230532  MISS:    1042754
L1D LOAD      ACCESS:    6278565  HIT:    5790318  MISS:     488247
L1D RFO       ACCESS:    4958218  HIT:    4876496  MISS:      81722
L1D PREFETCH  ACCESS:    6036503  HIT:    5563718  MISS:     472785
L1D WRITEBACK ACCESS:          0  HIT:          0  MISS:          0
L1D PREFETCH  REQUESTED:    6312218  ISSUED:    6213347  USEFUL:     132228  USELESS:     340578
L1D AVERAGE MISS LATENCY: 40.4235 cycles
L1I TOTAL     ACCESS:   34523671  HIT:   32545422  MISS:    1978249
L1I LOAD      ACCESS:    8747259  HIT:    8695006  MISS:      52253
L1I RFO       ACCESS:          0  HIT:          0  MISS:          0
L1I PREFETCH  ACCESS:   25776412  HIT:   23850416  MISS:    1925996
L1I WRITEBACK ACCESS:          0  HIT:          0  MISS:          0
L1I PREFETCH  REQUESTED:   34534030  ISSUED:   34534030  USEFUL:    1364755  USELESS:     561200
L1I AVERAGE MISS LATENCY: 31.7153 cycles
L2C TOTAL     ACCESS:    3882671  HIT:    2594624  MISS:    1288047
L2C LOAD      ACCESS:     490238  HIT:     240392  MISS:     249846
L2C RFO       ACCESS:      80586  HIT:      30854  MISS:      49732
L2C PREFETCH  ACCESS:    3036356  HIT:    2049556  MISS:     986800
L2C WRITEBACK ACCESS:     275491  HIT:     273822  MISS:       1669
L2C PREFETCH  REQUESTED:    3670942  ISSUED:    3663839  USEFUL:      25534  USELESS:     960850
L2C AVERAGE MISS LATENCY: 46.6361 cycles
LLC TOTAL     ACCESS:    2407296  HIT:    2259169  MISS:     148127
LLC LOAD      ACCESS:     249727  HIT:     231420  MISS:      18307
LLC RFO       ACCESS:      49727  HIT:      39410  MISS:      10317
LLC PREFETCH  ACCESS:    1940798  HIT:    1821617  MISS:     119181
LLC WRITEBACK ACCESS:     167044  HIT:     166722  MISS:        322
LLC PREFETCH  REQUESTED:          0  ISSUED:          0  USEFUL:      10096  USELESS:     108679
LLC AVERAGE MISS LATENCY: 175.823 cycles
Major fault: 0 Minor fault: 5606
CPU 0 L1I EPI prefetcher final stats
CPU 0 L1D next line prefetcher final stats

DRAM Statistics
 CHANNEL 0
 RQ ROW_BUFFER_HIT:      22775  ROW_BUFFER_MISS:     125010
 DBUS_CONGESTED:      66913
 WQ ROW_BUFFER_HIT:      10964  ROW_BUFFER_MISS:      48637  FULL:          0

 AVG_CONGESTED_CYCLE: 5

CPU 0 Branch Prediction Accuracy: 99.4607% MPKI: 1.00288 Average ROB Occupancy at Mispredict: 127.207

Branch types
NOT_BRANCH: 40701161 81.4023%
BRANCH_DIRECT_JUMP: 469810 0.93962%
BRANCH_INDIRECT: 153732 0.307464%
BRANCH_CONDITIONAL: 6944091 13.8882%
BRANCH_DIRECT_CALL: 679880 1.35976%
BRANCH_INDIRECT_CALL: 168745 0.33749%
BRANCH_RETURN: 882493 1.76499%
BRANCH_OTHER: 0 0%

