Initialize SIGNATURE TABLE
ST_SET: 1
ST_WAY: 256
ST_TAG_BIT: 16
ST_TAG_MASK: ffff

Initialize PATTERN TABLE
PT_SET: 512
PT_WAY: 4
SIG_DELTA_BIT: 7
C_SIG_BIT: 4
C_DELTA_BIT: 4

Initialize PREFETCH FILTER
FILTER_SET: 1024

*** ChampSim Multicore Out-of-Order Simulator ***

Warmup Instructions: 50000000
Simulation Instructions: 50000000
Number of CPUs: 1
LLC sets: 2048
LLC ways: 16
Off-chip DRAM Size: 4096 MB Channels: 1 Width: 64-bit Data Rate: 3200 MT/s

CPU 0 runs /home/sankara2004/240C/hw1/ChampSim_2/ChampSim/ipc1_public/server_022.champsimtrace.xz
CPU 0 EPI prefetcher
CPU 0 L1D next line prefetcher
Heartbeat CPU 0 instructions: 10000002 cycles: 3622807 heartbeat IPC: 2.76029 cumulative IPC: 2.76029 (Simulation time: 0 hr 6 min 32 sec) 
Heartbeat CPU 0 instructions: 20000001 cycles: 7252153 heartbeat IPC: 2.75532 cumulative IPC: 2.7578 (Simulation time: 0 hr 12 min 59 sec) 
Heartbeat CPU 0 instructions: 30000003 cycles: 10875045 heartbeat IPC: 2.76023 cumulative IPC: 2.75861 (Simulation time: 0 hr 19 min 32 sec) 
Heartbeat CPU 0 instructions: 40000003 cycles: 14505308 heartbeat IPC: 2.75462 cumulative IPC: 2.75761 (Simulation time: 0 hr 26 min 3 sec) 
Heartbeat CPU 0 instructions: 50000002 cycles: 18125634 heartbeat IPC: 2.76218 cumulative IPC: 2.75852 (Simulation time: 0 hr 32 min 33 sec) 

Warmup complete CPU 0 instructions: 50000002 cycles: 18125634 (Simulation time: 0 hr 32 min 33 sec) 

Heartbeat CPU 0 instructions: 60000000 cycles: 34939913 heartbeat IPC: 0.594732 cumulative IPC: 0.594732 (Simulation time: 0 hr 40 min 49 sec) 
Heartbeat CPU 0 instructions: 70000001 cycles: 51889695 heartbeat IPC: 0.589978 cumulative IPC: 0.592346 (Simulation time: 0 hr 49 min 12 sec) 
Heartbeat CPU 0 instructions: 80000001 cycles: 68643103 heartbeat IPC: 0.596893 cumulative IPC: 0.593854 (Simulation time: 0 hr 57 min 41 sec) 
Heartbeat CPU 0 instructions: 90000003 cycles: 85712835 heartbeat IPC: 0.585832 cumulative IPC: 0.591828 (Simulation time: 1 hr 5 min 56 sec) 
Heartbeat CPU 0 instructions: 100000003 cycles: 102586077 heartbeat IPC: 0.592654 cumulative IPC: 0.591993 (Simulation time: 1 hr 14 min 2 sec) 
Finished CPU 0 instructions: 50000001 cycles: 84460443 cumulative IPC: 0.591993 (Simulation time: 1 hr 14 min 2 sec) 

ChampSim completed all CPUs

Region of Interest Statistics

CPU 0 cumulative IPC: 0.591993 instructions: 50000001 cycles: 84460443
L1D TOTAL     ACCESS:   18694005  HIT:   16483232  MISS:    2210773
L1D LOAD      ACCESS:    7049180  HIT:    6342255  MISS:     706925
L1D RFO       ACCESS:    5889981  HIT:    4910487  MISS:     979494
L1D PREFETCH  ACCESS:    5754844  HIT:    5230490  MISS:     524354
L1D WRITEBACK ACCESS:          0  HIT:          0  MISS:          0
L1D PREFETCH  REQUESTED:    7091473  ISSUED:    6883593  USEFUL:     203145  USELESS:     321214
L1D AVERAGE MISS LATENCY: 179.035 cycles
L1I TOTAL     ACCESS:   33758665  HIT:   31225615  MISS:    2533050
L1I LOAD      ACCESS:   10132014  HIT:   10095059  MISS:      36955
L1I RFO       ACCESS:          0  HIT:          0  MISS:          0
L1I PREFETCH  ACCESS:   23626651  HIT:   21130556  MISS:    2496095
L1I WRITEBACK ACCESS:          0  HIT:          0  MISS:          0
L1I PREFETCH  REQUESTED:   27757708  ISSUED:   27757708  USEFUL:    2321686  USELESS:     174408
L1I AVERAGE MISS LATENCY: 18.6583 cycles
L2C TOTAL     ACCESS:    7087860  HIT:    5224692  MISS:    1863168
L2C LOAD      ACCESS:     507876  HIT:     263295  MISS:     244581
L2C RFO       ACCESS:     978957  HIT:      20140  MISS:     958817
L2C PREFETCH  ACCESS:    4415899  HIT:    3758359  MISS:     657540
L2C WRITEBACK ACCESS:    1185128  HIT:    1182898  MISS:       2230
L2C PREFETCH  REQUESTED:    4030441  ISSUED:    4025026  USEFUL:      20702  USELESS:     636859
L2C AVERAGE MISS LATENCY: 218.55 cycles
LLC TOTAL     ACCESS:    4019450  HIT:    2625871  MISS:    1393579
LLC LOAD      ACCESS:     244431  HIT:     170295  MISS:      74136
LLC RFO       ACCESS:     958792  HIT:     141603  MISS:     817189
LLC PREFETCH  ACCESS:    1698572  HIT:    1198415  MISS:     500157
LLC WRITEBACK ACCESS:    1117655  HIT:    1115558  MISS:       2097
LLC PREFETCH  REQUESTED:          0  ISSUED:          0  USEFUL:      27218  USELESS:     473163
LLC AVERAGE MISS LATENCY: 291.541 cycles
Major fault: 0 Minor fault: 23506
CPU 0 L1I EPI prefetcher final stats
CPU 0 L1D next line prefetcher final stats

DRAM Statistics
 CHANNEL 0
 RQ ROW_BUFFER_HIT:     400752  ROW_BUFFER_MISS:     990445
 DBUS_CONGESTED:    1436743
 WQ ROW_BUFFER_HIT:     271035  ROW_BUFFER_MISS:     631729  FULL:          0

 AVG_CONGESTED_CYCLE: 6

CPU 0 Branch Prediction Accuracy: 99.8317% MPKI: 0.27564 Average ROB Occupancy at Mispredict: 223.952

Branch types
NOT_BRANCH: 41811177 83.6224%
BRANCH_DIRECT_JUMP: 445742 0.891484%
BRANCH_INDIRECT: 48876 0.097752%
BRANCH_CONDITIONAL: 5859411 11.7188%
BRANCH_DIRECT_CALL: 758268 1.51654%
BRANCH_INDIRECT_CALL: 159103 0.318206%
BRANCH_RETURN: 917373 1.83475%
BRANCH_OTHER: 0 0%

