Initialize SIGNATURE TABLE
ST_SET: 1
ST_WAY: 256
ST_TAG_BIT: 16
ST_TAG_MASK: ffff

Initialize PATTERN TABLE
PT_SET: 512
PT_WAY: 4
SIG_DELTA_BIT: 7
C_SIG_BIT: 4
C_DELTA_BIT: 4

Initialize PREFETCH FILTER
FILTER_SET: 1024

*** ChampSim Multicore Out-of-Order Simulator ***

Warmup Instructions: 50000000
Simulation Instructions: 50000000
Number of CPUs: 1
LLC sets: 2048
LLC ways: 16
Off-chip DRAM Size: 4096 MB Channels: 1 Width: 64-bit Data Rate: 3200 MT/s

CPU 0 runs /home/sankara2004/240C/hw1/ChampSim_2/ChampSim/ipc1_public/server_030.champsimtrace.xz
LHT KB: 31.56
SCC KB: 1.56
Total KB: 33.12
CPU 0 L1D next line prefetcher
Heartbeat CPU 0 instructions: 10000001 cycles: 3517746 heartbeat IPC: 2.84273 cumulative IPC: 2.84273 (Simulation time: 0 hr 5 min 51 sec) 
Heartbeat CPU 0 instructions: 20000003 cycles: 7034512 heartbeat IPC: 2.84352 cumulative IPC: 2.84313 (Simulation time: 0 hr 11 min 38 sec) 
Heartbeat CPU 0 instructions: 30000000 cycles: 10550291 heartbeat IPC: 2.84432 cumulative IPC: 2.84352 (Simulation time: 0 hr 17 min 26 sec) 
Heartbeat CPU 0 instructions: 40000002 cycles: 14066523 heartbeat IPC: 2.84395 cumulative IPC: 2.84363 (Simulation time: 0 hr 23 min 12 sec) 
Heartbeat CPU 0 instructions: 50000002 cycles: 17585147 heartbeat IPC: 2.84202 cumulative IPC: 2.84331 (Simulation time: 0 hr 28 min 53 sec) 

Warmup complete CPU 0 instructions: 50000002 cycles: 17585147 (Simulation time: 0 hr 28 min 53 sec) 

Heartbeat CPU 0 instructions: 60000000 cycles: 25765211 heartbeat IPC: 1.22248 cumulative IPC: 1.22248 (Simulation time: 0 hr 36 min 21 sec) 
Heartbeat CPU 0 instructions: 70000000 cycles: 34000365 heartbeat IPC: 1.21431 cumulative IPC: 1.21838 (Simulation time: 0 hr 44 min 2 sec) 
Heartbeat CPU 0 instructions: 80000001 cycles: 42157399 heartbeat IPC: 1.22594 cumulative IPC: 1.22089 (Simulation time: 0 hr 51 min 49 sec) 
*** Reached end of trace for Core: 0 Repeating trace: /home/sankara2004/240C/hw1/ChampSim_2/ChampSim/ipc1_public/server_030.champsimtrace.xz
Heartbeat CPU 0 instructions: 90000002 cycles: 50368734 heartbeat IPC: 1.21783 cumulative IPC: 1.22012 (Simulation time: 0 hr 59 min 28 sec) 
Heartbeat CPU 0 instructions: 100000000 cycles: 58493389 heartbeat IPC: 1.23082 cumulative IPC: 1.22225 (Simulation time: 1 hr 6 min 51 sec) 
Finished CPU 0 instructions: 50000002 cycles: 40908243 cumulative IPC: 1.22225 (Simulation time: 1 hr 6 min 51 sec) 

ChampSim completed all CPUs

Region of Interest Statistics

CPU 0 cumulative IPC: 1.22225 instructions: 50000002 cycles: 40908243
L1D TOTAL     ACCESS:   19949096  HIT:   17871643  MISS:    2077453
L1D LOAD      ACCESS:    7151156  HIT:    6098591  MISS:    1052565
L1D RFO       ACCESS:    6182371  HIT:    5896226  MISS:     286145
L1D PREFETCH  ACCESS:    6615569  HIT:    5876826  MISS:     738743
L1D WRITEBACK ACCESS:          0  HIT:          0  MISS:          0
L1D PREFETCH  REQUESTED:    7210370  ISSUED:    7093218  USEFUL:     182296  USELESS:     556542
L1D AVERAGE MISS LATENCY: 22.2489 cycles
L1I TOTAL     ACCESS:   23313434  HIT:   17809045  MISS:    5504389
L1I LOAD      ACCESS:    9511841  HIT:    8285829  MISS:    1226012
L1I RFO       ACCESS:          0  HIT:          0  MISS:          0
L1I PREFETCH  ACCESS:   13801593  HIT:    9523216  MISS:    4278377
L1I WRITEBACK ACCESS:          0  HIT:          0  MISS:          0
L1I PREFETCH  REQUESTED:   26033889  ISSUED:   26033889  USEFUL:    1918464  USELESS:    2359915
L1I AVERAGE MISS LATENCY: 16.7183 cycles
L2C TOTAL     ACCESS:   10580981  HIT:    8970032  MISS:    1610949
L2C LOAD      ACCESS:    1156090  HIT:     851926  MISS:     304164
L2C RFO       ACCESS:     283349  HIT:     183274  MISS:     100075
L2C PREFETCH  ACCESS:    8525960  HIT:    7328168  MISS:    1197792
L2C WRITEBACK ACCESS:     615582  HIT:     606664  MISS:       8918
L2C PREFETCH  REQUESTED:    7397229  ISSUED:    7391504  USEFUL:      33266  USELESS:    1163543
L2C AVERAGE MISS LATENCY: 34.0161 cycles
LLC TOTAL     ACCESS:    3191142  HIT:    3169254  MISS:      21888
LLC LOAD      ACCESS:     303614  HIT:     300421  MISS:       3193
LLC RFO       ACCESS:     100040  HIT:      98285  MISS:       1755
LLC PREFETCH  ACCESS:    2590482  HIT:    2573596  MISS:      16886
LLC WRITEBACK ACCESS:     197006  HIT:     196952  MISS:         54
LLC PREFETCH  REQUESTED:          0  ISSUED:          0  USEFUL:        940  USELESS:      14655
LLC AVERAGE MISS LATENCY: 147.254 cycles
Major fault: 0 Minor fault: 2059
CPU 0 L1D next line prefetcher final stats

DRAM Statistics
 CHANNEL 0
 RQ ROW_BUFFER_HIT:       6775  ROW_BUFFER_MISS:      15059
 DBUS_CONGESTED:       7269
 WQ ROW_BUFFER_HIT:        216  ROW_BUFFER_MISS:       2610  FULL:          0

 AVG_CONGESTED_CYCLE: 5

CPU 0 Branch Prediction Accuracy: 99.8445% MPKI: 0.29148 Average ROB Occupancy at Mispredict: 132.278

Branch types
NOT_BRANCH: 40627810 81.2556%
BRANCH_DIRECT_JUMP: 490940 0.98188%
BRANCH_INDIRECT: 175853 0.351706%
BRANCH_CONDITIONAL: 6321388 12.6428%
BRANCH_DIRECT_CALL: 1002066 2.00413%
BRANCH_INDIRECT_CALL: 189782 0.379564%
BRANCH_RETURN: 1191846 2.38369%
BRANCH_OTHER: 0 0%

