Initialize SIGNATURE TABLE
ST_SET: 1
ST_WAY: 256
ST_TAG_BIT: 16
ST_TAG_MASK: ffff

Initialize PATTERN TABLE
PT_SET: 512
PT_WAY: 4
SIG_DELTA_BIT: 7
C_SIG_BIT: 4
C_DELTA_BIT: 4

Initialize PREFETCH FILTER
FILTER_SET: 1024

*** ChampSim Multicore Out-of-Order Simulator ***

Warmup Instructions: 50000000
Simulation Instructions: 50000000
Number of CPUs: 1
LLC sets: 2048
LLC ways: 16
Off-chip DRAM Size: 4096 MB Channels: 1 Width: 64-bit Data Rate: 3200 MT/s

CPU 0 runs /home/sankara2004/240C/hw1/ChampSim_2/ChampSim/ipc1_public/server_027.champsimtrace.xz
LHT KB: 126.25
SCC KB: 1.56
Total KB: 127.81
CPU 0 L1D next line prefetcher
Heartbeat CPU 0 instructions: 10000001 cycles: 3524534 heartbeat IPC: 2.83725 cumulative IPC: 2.83725 (Simulation time: 0 hr 5 min 41 sec) 
Heartbeat CPU 0 instructions: 20000001 cycles: 7053173 heartbeat IPC: 2.83395 cumulative IPC: 2.8356 (Simulation time: 0 hr 11 min 19 sec) 
Heartbeat CPU 0 instructions: 30000002 cycles: 10577082 heartbeat IPC: 2.83776 cumulative IPC: 2.83632 (Simulation time: 0 hr 17 min 1 sec) 
Heartbeat CPU 0 instructions: 40000000 cycles: 14106561 heartbeat IPC: 2.83328 cumulative IPC: 2.83556 (Simulation time: 0 hr 22 min 39 sec) 
Heartbeat CPU 0 instructions: 50000001 cycles: 17629308 heartbeat IPC: 2.83869 cumulative IPC: 2.83619 (Simulation time: 0 hr 28 min 16 sec) 

Warmup complete CPU 0 instructions: 50000001 cycles: 17629308 (Simulation time: 0 hr 28 min 16 sec) 

Heartbeat CPU 0 instructions: 60000002 cycles: 24717792 heartbeat IPC: 1.41074 cumulative IPC: 1.41074 (Simulation time: 0 hr 35 min 38 sec) 
Heartbeat CPU 0 instructions: 70000003 cycles: 31748038 heartbeat IPC: 1.42243 cumulative IPC: 1.41656 (Simulation time: 0 hr 43 min 7 sec) 
Heartbeat CPU 0 instructions: 80000002 cycles: 38808217 heartbeat IPC: 1.41639 cumulative IPC: 1.4165 (Simulation time: 0 hr 50 min 42 sec) 
Heartbeat CPU 0 instructions: 90000001 cycles: 45934376 heartbeat IPC: 1.40328 cumulative IPC: 1.41317 (Simulation time: 0 hr 58 min 4 sec) 
Heartbeat CPU 0 instructions: 100000002 cycles: 52959334 heartbeat IPC: 1.4235 cumulative IPC: 1.41523 (Simulation time: 1 hr 5 min 16 sec) 
Finished CPU 0 instructions: 50000001 cycles: 35330026 cumulative IPC: 1.41523 (Simulation time: 1 hr 5 min 16 sec) 

ChampSim completed all CPUs

Region of Interest Statistics

CPU 0 cumulative IPC: 1.41523 instructions: 50000001 cycles: 35330026
L1D TOTAL     ACCESS:   20247672  HIT:   18645651  MISS:    1602021
L1D LOAD      ACCESS:    7113869  HIT:    6423564  MISS:     690305
L1D RFO       ACCESS:    6300487  HIT:    6015116  MISS:     285371
L1D PREFETCH  ACCESS:    6833316  HIT:    6206971  MISS:     626345
L1D WRITEBACK ACCESS:          0  HIT:          0  MISS:          0
L1D PREFETCH  REQUESTED:    7159347  ISSUED:    7036374  USEFUL:     151308  USELESS:     475051
L1D AVERAGE MISS LATENCY: 23.5375 cycles
L1I TOTAL     ACCESS:   20463692  HIT:   16404446  MISS:    4059246
L1I LOAD      ACCESS:    9238006  HIT:    8462176  MISS:     775830
L1I RFO       ACCESS:          0  HIT:          0  MISS:          0
L1I PREFETCH  ACCESS:   11225686  HIT:    7942270  MISS:    3283416
L1I WRITEBACK ACCESS:          0  HIT:          0  MISS:          0
L1I PREFETCH  REQUESTED:   13883936  ISSUED:   13883936  USEFUL:    2101315  USELESS:    1182040
L1I AVERAGE MISS LATENCY: 14.0522 cycles
L2C TOTAL     ACCESS:    7696973  HIT:    6996075  MISS:     700898
L2C LOAD      ACCESS:     747408  HIT:     619855  MISS:     127553
L2C RFO       ACCESS:     283623  HIT:     196436  MISS:      87187
L2C PREFETCH  ACCESS:    6106700  HIT:    5624919  MISS:     481781
L2C WRITEBACK ACCESS:     559242  HIT:     554865  MISS:       4377
L2C PREFETCH  REQUESTED:    4339274  ISSUED:    4332749  USEFUL:      17700  USELESS:     463231
L2C AVERAGE MISS LATENCY: 38.2299 cycles
LLC TOTAL     ACCESS:    2033200  HIT:    1998721  MISS:      34479
LLC LOAD      ACCESS:     127433  HIT:     124178  MISS:       3255
LLC RFO       ACCESS:      87182  HIT:      73272  MISS:      13910
LLC PREFETCH  ACCESS:    1676569  HIT:    1659394  MISS:      17175
LLC WRITEBACK ACCESS:     142016  HIT:     141877  MISS:        139
LLC PREFETCH  REQUESTED:          0  ISSUED:          0  USEFUL:       1115  USELESS:      14691
LLC AVERAGE MISS LATENCY: 186.242 cycles
Major fault: 0 Minor fault: 2487
CPU 0 L1D next line prefetcher final stats

DRAM Statistics
 CHANNEL 0
 RQ ROW_BUFFER_HIT:      11051  ROW_BUFFER_MISS:      23287
 DBUS_CONGESTED:      23150
 WQ ROW_BUFFER_HIT:       1521  ROW_BUFFER_MISS:      15250  FULL:          0

 AVG_CONGESTED_CYCLE: 6

CPU 0 Branch Prediction Accuracy: 99.8082% MPKI: 0.35064 Average ROB Occupancy at Mispredict: 159.328

Branch types
NOT_BRANCH: 40857507 81.715%
BRANCH_DIRECT_JUMP: 526635 1.05327%
BRANCH_INDIRECT: 205902 0.411804%
BRANCH_CONDITIONAL: 6184049 12.3681%
BRANCH_DIRECT_CALL: 938468 1.87694%
BRANCH_INDIRECT_CALL: 174486 0.348972%
BRANCH_RETURN: 1112959 2.22592%
BRANCH_OTHER: 0 0%

