Initialize SIGNATURE TABLE
ST_SET: 1
ST_WAY: 256
ST_TAG_BIT: 16
ST_TAG_MASK: ffff

Initialize PATTERN TABLE
PT_SET: 512
PT_WAY: 4
SIG_DELTA_BIT: 7
C_SIG_BIT: 4
C_DELTA_BIT: 4

Initialize PREFETCH FILTER
FILTER_SET: 1024

*** ChampSim Multicore Out-of-Order Simulator ***

Warmup Instructions: 50000000
Simulation Instructions: 50000000
Number of CPUs: 1
LLC sets: 2048
LLC ways: 16
Off-chip DRAM Size: 4096 MB Channels: 1 Width: 64-bit Data Rate: 3200 MT/s

CPU 0 runs /home/sankara2004/240C/hw1/ChampSim_2/ChampSim/ipc1_public/server_019.champsimtrace.xz
LHT KB: 126.25
SCC KB: 1.56
Total KB: 127.81
CPU 0 L1D next line prefetcher
Heartbeat CPU 0 instructions: 10000002 cycles: 3623339 heartbeat IPC: 2.75989 cumulative IPC: 2.75989 (Simulation time: 0 hr 5 min 53 sec) 
Heartbeat CPU 0 instructions: 20000003 cycles: 7247896 heartbeat IPC: 2.75896 cumulative IPC: 2.75942 (Simulation time: 0 hr 11 min 41 sec) 
Heartbeat CPU 0 instructions: 30000002 cycles: 10871126 heartbeat IPC: 2.75997 cumulative IPC: 2.7596 (Simulation time: 0 hr 17 min 32 sec) 
Heartbeat CPU 0 instructions: 40000002 cycles: 14506373 heartbeat IPC: 2.75084 cumulative IPC: 2.75741 (Simulation time: 0 hr 23 min 18 sec) 
Heartbeat CPU 0 instructions: 50000001 cycles: 18129822 heartbeat IPC: 2.7598 cumulative IPC: 2.75789 (Simulation time: 0 hr 29 min 2 sec) 

Warmup complete CPU 0 instructions: 50000001 cycles: 18129822 (Simulation time: 0 hr 29 min 2 sec) 

Heartbeat CPU 0 instructions: 60000000 cycles: 38412352 heartbeat IPC: 0.493035 cumulative IPC: 0.493035 (Simulation time: 0 hr 36 min 39 sec) 
Heartbeat CPU 0 instructions: 70000002 cycles: 62330338 heartbeat IPC: 0.418095 cumulative IPC: 0.452483 (Simulation time: 0 hr 44 min 29 sec) 
Heartbeat CPU 0 instructions: 80000001 cycles: 83290646 heartbeat IPC: 0.477092 cumulative IPC: 0.460399 (Simulation time: 0 hr 52 min 26 sec) 
Heartbeat CPU 0 instructions: 90000002 cycles: 101439583 heartbeat IPC: 0.550997 cumulative IPC: 0.480136 (Simulation time: 1 hr 0 min 5 sec) 
Heartbeat CPU 0 instructions: 100000002 cycles: 119545700 heartbeat IPC: 0.5523 cumulative IPC: 0.493019 (Simulation time: 1 hr 7 min 24 sec) 
Finished CPU 0 instructions: 50000001 cycles: 101415878 cumulative IPC: 0.493019 (Simulation time: 1 hr 7 min 24 sec) 

ChampSim completed all CPUs

Region of Interest Statistics

CPU 0 cumulative IPC: 0.493019 instructions: 50000001 cycles: 101415878
L1D TOTAL     ACCESS:   18335433  HIT:   16111826  MISS:    2223607
L1D LOAD      ACCESS:    6979719  HIT:    6214967  MISS:     764752
L1D RFO       ACCESS:    5550823  HIT:    4648653  MISS:     902170
L1D PREFETCH  ACCESS:    5804891  HIT:    5248206  MISS:     556685
L1D WRITEBACK ACCESS:          0  HIT:          0  MISS:          0
L1D PREFETCH  REQUESTED:    7018149  ISSUED:    6831813  USEFUL:     187479  USELESS:     369114
L1D AVERAGE MISS LATENCY: 186.367 cycles
L1I TOTAL     ACCESS:   22112906  HIT:   19473342  MISS:    2639564
L1I LOAD      ACCESS:    9817957  HIT:    9620559  MISS:     197398
L1I RFO       ACCESS:          0  HIT:          0  MISS:          0
L1I PREFETCH  ACCESS:   12294949  HIT:    9852783  MISS:    2442166
L1I WRITEBACK ACCESS:          0  HIT:          0  MISS:          0
L1I PREFETCH  REQUESTED:   13660153  ISSUED:   13660153  USEFUL:    1921173  USELESS:     520940
L1I AVERAGE MISS LATENCY: 17.018 cycles
L2C TOTAL     ACCESS:    7028780  HIT:    5132404  MISS:    1896376
L2C LOAD      ACCESS:     582873  HIT:     247323  MISS:     335550
L2C RFO       ACCESS:     901513  HIT:      17976  MISS:     883537
L2C PREFETCH  ACCESS:    4369744  HIT:    3695566  MISS:     674178
L2C WRITEBACK ACCESS:    1174650  HIT:    1171539  MISS:       3111
L2C PREFETCH  REQUESTED:    3196378  ISSUED:    3195678  USEFUL:      22726  USELESS:     650060
L2C AVERAGE MISS LATENCY: 223.766 cycles
LLC TOTAL     ACCESS:    3936410  HIT:    2371963  MISS:    1564447
LLC LOAD      ACCESS:     335548  HIT:     169545  MISS:     166003
LLC RFO       ACCESS:     883535  HIT:     116972  MISS:     766563
LLC PREFETCH  ACCESS:    1604990  HIT:     975388  MISS:     629602
LLC WRITEBACK ACCESS:    1112337  HIT:    1110058  MISS:       2279
LLC PREFETCH  REQUESTED:          0  ISSUED:          0  USEFUL:      48211  USELESS:     580326
LLC AVERAGE MISS LATENCY: 273.926 cycles
Major fault: 0 Minor fault: 25700
CPU 0 L1D next line prefetcher final stats

DRAM Statistics
 CHANNEL 0
 RQ ROW_BUFFER_HIT:     377429  ROW_BUFFER_MISS:    1184589
 DBUS_CONGESTED:    1535074
 WQ ROW_BUFFER_HIT:     282299  ROW_BUFFER_MISS:     651620  FULL:          0

 AVG_CONGESTED_CYCLE: 6

CPU 0 Branch Prediction Accuracy: 99.2186% MPKI: 1.32192 Average ROB Occupancy at Mispredict: 178.913

Branch types
NOT_BRANCH: 41540807 83.0816%
BRANCH_DIRECT_JUMP: 462384 0.924768%
BRANCH_INDIRECT: 45460 0.09092%
BRANCH_CONDITIONAL: 6209283 12.4186%
BRANCH_DIRECT_CALL: 666241 1.33248%
BRANCH_INDIRECT_CALL: 204728 0.409456%
BRANCH_RETURN: 870978 1.74196%
BRANCH_OTHER: 0 0%

