Initialize SIGNATURE TABLE
ST_SET: 1
ST_WAY: 256
ST_TAG_BIT: 16
ST_TAG_MASK: ffff

Initialize PATTERN TABLE
PT_SET: 512
PT_WAY: 4
SIG_DELTA_BIT: 7
C_SIG_BIT: 4
C_DELTA_BIT: 4

Initialize PREFETCH FILTER
FILTER_SET: 1024

*** ChampSim Multicore Out-of-Order Simulator ***

Warmup Instructions: 50000000
Simulation Instructions: 50000000
Number of CPUs: 1
LLC sets: 2048
LLC ways: 16
Off-chip DRAM Size: 4096 MB Channels: 1 Width: 64-bit Data Rate: 3200 MT/s

CPU 0 runs /home/sankara2004/240C/hw1/ChampSim_2/ChampSim/ipc1_public/server_023.champsimtrace.xz
CPU 0 EPI prefetcher
CPU 0 L1D next line prefetcher
Heartbeat CPU 0 instructions: 10000000 cycles: 3499270 heartbeat IPC: 2.85774 cumulative IPC: 2.85774 (Simulation time: 0 hr 6 min 31 sec) 
Heartbeat CPU 0 instructions: 20000000 cycles: 6997355 heartbeat IPC: 2.85871 cumulative IPC: 2.85822 (Simulation time: 0 hr 13 min 3 sec) 
Heartbeat CPU 0 instructions: 30000001 cycles: 10488756 heartbeat IPC: 2.86418 cumulative IPC: 2.86021 (Simulation time: 0 hr 19 min 44 sec) 
Heartbeat CPU 0 instructions: 40000003 cycles: 13986043 heartbeat IPC: 2.85936 cumulative IPC: 2.85999 (Simulation time: 0 hr 26 min 19 sec) 
Heartbeat CPU 0 instructions: 50000001 cycles: 17485262 heartbeat IPC: 2.85778 cumulative IPC: 2.85955 (Simulation time: 0 hr 32 min 53 sec) 

Warmup complete CPU 0 instructions: 50000001 cycles: 17485262 (Simulation time: 0 hr 32 min 53 sec) 

Heartbeat CPU 0 instructions: 60000002 cycles: 24201015 heartbeat IPC: 1.48904 cumulative IPC: 1.48904 (Simulation time: 0 hr 41 min 15 sec) 
Heartbeat CPU 0 instructions: 70000002 cycles: 31128741 heartbeat IPC: 1.44348 cumulative IPC: 1.4659 (Simulation time: 0 hr 49 min 44 sec) 
Heartbeat CPU 0 instructions: 80000000 cycles: 37955849 heartbeat IPC: 1.46475 cumulative IPC: 1.46552 (Simulation time: 0 hr 58 min 40 sec) 
Heartbeat CPU 0 instructions: 90000000 cycles: 44844821 heartbeat IPC: 1.4516 cumulative IPC: 1.46201 (Simulation time: 1 hr 7 min 8 sec) 
Heartbeat CPU 0 instructions: 100000001 cycles: 51639933 heartbeat IPC: 1.47165 cumulative IPC: 1.46393 (Simulation time: 1 hr 15 min 22 sec) 
Finished CPU 0 instructions: 50000000 cycles: 34154671 cumulative IPC: 1.46393 (Simulation time: 1 hr 15 min 22 sec) 

ChampSim completed all CPUs

Region of Interest Statistics

CPU 0 cumulative IPC: 1.46393 instructions: 50000000 cycles: 34154671
L1D TOTAL     ACCESS:   19338960  HIT:   17872109  MISS:    1466851
L1D LOAD      ACCESS:    6840167  HIT:    6178523  MISS:     661644
L1D RFO       ACCESS:    5981460  HIT:    5720024  MISS:     261436
L1D PREFETCH  ACCESS:    6517333  HIT:    5973562  MISS:     543771
L1D WRITEBACK ACCESS:          0  HIT:          0  MISS:          0
L1D PREFETCH  REQUESTED:    6890851  ISSUED:    6769151  USEFUL:     129144  USELESS:     414636
L1D AVERAGE MISS LATENCY: 24.5213 cycles
L1I TOTAL     ACCESS:   30029624  HIT:   26962057  MISS:    3067567
L1I LOAD      ACCESS:    9435668  HIT:    9392875  MISS:      42793
L1I RFO       ACCESS:          0  HIT:          0  MISS:          0
L1I PREFETCH  ACCESS:   20593956  HIT:   17569182  MISS:    3024774
L1I WRITEBACK ACCESS:          0  HIT:          0  MISS:          0
L1I PREFETCH  REQUESTED:   27478057  ISSUED:   27478057  USEFUL:    2417519  USELESS:     607210
L1I AVERAGE MISS LATENCY: 18.9571 cycles
L2C TOTAL     ACCESS:    6284433  HIT:    5594549  MISS:     689884
L2C LOAD      ACCESS:     620804  HIT:     500318  MISS:     120486
L2C RFO       ACCESS:     259362  HIT:     168192  MISS:      91170
L2C PREFETCH  ACCESS:    4905007  HIT:    4428901  MISS:     476106
L2C WRITEBACK ACCESS:     499260  HIT:     497138  MISS:       2122
L2C PREFETCH  REQUESTED:    5529699  ISSUED:    5516815  USEFUL:      13460  USELESS:     462376
L2C AVERAGE MISS LATENCY: 42.41 cycles
LLC TOTAL     ACCESS:    2241086  HIT:    2186498  MISS:      54588
LLC LOAD      ACCESS:     120171  HIT:     113695  MISS:       6476
LLC RFO       ACCESS:      91157  HIT:      73366  MISS:      17791
LLC PREFETCH  ACCESS:    1888098  HIT:    1858079  MISS:      30019
LLC WRITEBACK ACCESS:     141660  HIT:     141358  MISS:        302
LLC PREFETCH  REQUESTED:          0  ISSUED:          0  USEFUL:       2624  USELESS:      27226
LLC AVERAGE MISS LATENCY: 181.135 cycles
Major fault: 0 Minor fault: 2769
CPU 0 L1I EPI prefetcher final stats
CPU 0 L1D next line prefetcher final stats

DRAM Statistics
 CHANNEL 0
 RQ ROW_BUFFER_HIT:      15955  ROW_BUFFER_MISS:      38317
 DBUS_CONGESTED:      32835
 WQ ROW_BUFFER_HIT:       2565  ROW_BUFFER_MISS:      18910  FULL:          0

 AVG_CONGESTED_CYCLE: 6

CPU 0 Branch Prediction Accuracy: 99.6798% MPKI: 0.58608 Average ROB Occupancy at Mispredict: 149.599

Branch types
NOT_BRANCH: 40848342 81.6967%
BRANCH_DIRECT_JUMP: 548372 1.09674%
BRANCH_INDIRECT: 189802 0.379604%
BRANCH_CONDITIONAL: 6372772 12.7455%
BRANCH_DIRECT_CALL: 862207 1.72441%
BRANCH_INDIRECT_CALL: 158149 0.316298%
BRANCH_RETURN: 1020345 2.04069%
BRANCH_OTHER: 0 0%

