Initialize SIGNATURE TABLE
ST_SET: 1
ST_WAY: 256
ST_TAG_BIT: 16
ST_TAG_MASK: ffff

Initialize PATTERN TABLE
PT_SET: 512
PT_WAY: 4
SIG_DELTA_BIT: 7
C_SIG_BIT: 4
C_DELTA_BIT: 4

Initialize PREFETCH FILTER
FILTER_SET: 1024

*** ChampSim Multicore Out-of-Order Simulator ***

Warmup Instructions: 50000000
Simulation Instructions: 50000000
Number of CPUs: 1
LLC sets: 2048
LLC ways: 16
Off-chip DRAM Size: 4096 MB Channels: 1 Width: 64-bit Data Rate: 3200 MT/s

CPU 0 runs /home/sankara2004/240C/hw1/ChampSim_2/ChampSim/ipc1_public/server_013.champsimtrace.xz
LHT KB: 126.25
SCC KB: 1.56
Total KB: 127.81
CPU 0 L1D next line prefetcher
Heartbeat CPU 0 instructions: 10000000 cycles: 3212693 heartbeat IPC: 3.11265 cumulative IPC: 3.11265 (Simulation time: 0 hr 5 min 40 sec) 
Heartbeat CPU 0 instructions: 20000001 cycles: 6414387 heartbeat IPC: 3.12335 cumulative IPC: 3.11799 (Simulation time: 0 hr 11 min 18 sec) 
Heartbeat CPU 0 instructions: 30000002 cycles: 9620167 heartbeat IPC: 3.11937 cumulative IPC: 3.11845 (Simulation time: 0 hr 17 min 0 sec) 
Heartbeat CPU 0 instructions: 40000002 cycles: 12821557 heartbeat IPC: 3.12364 cumulative IPC: 3.11975 (Simulation time: 0 hr 22 min 37 sec) 
Heartbeat CPU 0 instructions: 50000000 cycles: 16022577 heartbeat IPC: 3.124 cumulative IPC: 3.1206 (Simulation time: 0 hr 28 min 12 sec) 

Warmup complete CPU 0 instructions: 50000004 cycles: 16022578 (Simulation time: 0 hr 28 min 12 sec) 

Heartbeat CPU 0 instructions: 60000002 cycles: 23786274 heartbeat IPC: 1.28805 cumulative IPC: 1.28805 (Simulation time: 0 hr 35 min 33 sec) 
Heartbeat CPU 0 instructions: 70000003 cycles: 31736641 heartbeat IPC: 1.2578 cumulative IPC: 1.27275 (Simulation time: 0 hr 43 min 2 sec) 
Heartbeat CPU 0 instructions: 80000003 cycles: 39133736 heartbeat IPC: 1.35188 cumulative IPC: 1.29807 (Simulation time: 0 hr 50 min 37 sec) 
Heartbeat CPU 0 instructions: 90000003 cycles: 46733604 heartbeat IPC: 1.31581 cumulative IPC: 1.30246 (Simulation time: 0 hr 57 min 59 sec) 
Heartbeat CPU 0 instructions: 100000003 cycles: 54309103 heartbeat IPC: 1.32005 cumulative IPC: 1.30594 (Simulation time: 1 hr 5 min 12 sec) 
Finished CPU 0 instructions: 50000003 cycles: 38286526 cumulative IPC: 1.30594 (Simulation time: 1 hr 5 min 12 sec) 

ChampSim completed all CPUs

Region of Interest Statistics

CPU 0 cumulative IPC: 1.30594 instructions: 50000003 cycles: 38286526
L1D TOTAL     ACCESS:   17455338  HIT:   16388402  MISS:    1066936
L1D LOAD      ACCESS:    6379973  HIT:    5879933  MISS:     500040
L1D RFO       ACCESS:    4936033  HIT:    4855673  MISS:      80360
L1D PREFETCH  ACCESS:    6139332  HIT:    5652796  MISS:     486536
L1D WRITEBACK ACCESS:          0  HIT:          0  MISS:          0
L1D PREFETCH  REQUESTED:    6415467  ISSUED:    6319870  USEFUL:     134671  USELESS:     351874
L1D AVERAGE MISS LATENCY: 42.1773 cycles
L1I TOTAL     ACCESS:   16725750  HIT:   14534766  MISS:    2190984
L1I LOAD      ACCESS:    8625123  HIT:    8247475  MISS:     377648
L1I RFO       ACCESS:          0  HIT:          0  MISS:          0
L1I PREFETCH  ACCESS:    8100627  HIT:    6287291  MISS:    1813336
L1I WRITEBACK ACCESS:          0  HIT:          0  MISS:          0
L1I PREFETCH  REQUESTED:    9766041  ISSUED:    9766041  USEFUL:    1087917  USELESS:     725367
L1I AVERAGE MISS LATENCY: 25.4186 cycles
L2C TOTAL     ACCESS:    4237938  HIT:    2858558  MISS:    1379380
L2C LOAD      ACCESS:     524345  HIT:     246527  MISS:     277818
L2C RFO       ACCESS:      78996  HIT:      29881  MISS:      49115
L2C PREFETCH  ACCESS:    3358769  HIT:    2308478  MISS:    1050291
L2C WRITEBACK ACCESS:     275828  HIT:     273672  MISS:       2156
L2C PREFETCH  REQUESTED:    3050657  ISSUED:    3047118  USEFUL:      27949  USELESS:    1022155
L2C AVERAGE MISS LATENCY: 46.6624 cycles
LLC TOTAL     ACCESS:    2480797  HIT:    2318014  MISS:     162783
LLC LOAD      ACCESS:     277698  HIT:     255648  MISS:      22050
LLC RFO       ACCESS:      49106  HIT:      39153  MISS:       9953
LLC PREFETCH  ACCESS:    1979241  HIT:    1848718  MISS:     130523
LLC WRITEBACK ACCESS:     174752  HIT:     174495  MISS:        257
LLC PREFETCH  REQUESTED:          0  ISSUED:          0  USEFUL:      10708  USELESS:     118767
LLC AVERAGE MISS LATENCY: 173.675 cycles
Major fault: 0 Minor fault: 6217
CPU 0 L1D next line prefetcher final stats

DRAM Statistics
 CHANNEL 0
 RQ ROW_BUFFER_HIT:      27166  ROW_BUFFER_MISS:     135353
 DBUS_CONGESTED:      72882
 WQ ROW_BUFFER_HIT:      11628  ROW_BUFFER_MISS:      51709  FULL:          0

 AVG_CONGESTED_CYCLE: 5

CPU 0 Branch Prediction Accuracy: 99.4114% MPKI: 1.0933 Average ROB Occupancy at Mispredict: 111.168

Branch types
NOT_BRANCH: 40713270 81.4265%
BRANCH_DIRECT_JUMP: 463701 0.927402%
BRANCH_INDIRECT: 146544 0.293088%
BRANCH_CONDITIONAL: 6981955 13.9639%
BRANCH_DIRECT_CALL: 665005 1.33001%
BRANCH_INDIRECT_CALL: 165152 0.330304%
BRANCH_RETURN: 864314 1.72863%
BRANCH_OTHER: 0 0%

