Initialize SIGNATURE TABLE
ST_SET: 1
ST_WAY: 256
ST_TAG_BIT: 16
ST_TAG_MASK: ffff

Initialize PATTERN TABLE
PT_SET: 512
PT_WAY: 4
SIG_DELTA_BIT: 7
C_SIG_BIT: 4
C_DELTA_BIT: 4

Initialize PREFETCH FILTER
FILTER_SET: 1024

*** ChampSim Multicore Out-of-Order Simulator ***

Warmup Instructions: 50000000
Simulation Instructions: 50000000
Number of CPUs: 1
LLC sets: 2048
LLC ways: 16
Off-chip DRAM Size: 4096 MB Channels: 1 Width: 64-bit Data Rate: 3200 MT/s

CPU 0 runs /home/sankara2004/240C/hw1/ChampSim_2/ChampSim/ipc1_public/server_023.champsimtrace.xz
CPU 0 EPI prefetcher
CPU 0 L1D next line prefetcher
Heartbeat CPU 0 instructions: 10000000 cycles: 3498664 heartbeat IPC: 2.85823 cumulative IPC: 2.85823 (Simulation time: 0 hr 6 min 32 sec) 
Heartbeat CPU 0 instructions: 20000000 cycles: 6997086 heartbeat IPC: 2.85843 cumulative IPC: 2.85833 (Simulation time: 0 hr 13 min 2 sec) 
Heartbeat CPU 0 instructions: 30000001 cycles: 10489046 heartbeat IPC: 2.86372 cumulative IPC: 2.86013 (Simulation time: 0 hr 19 min 35 sec) 
Heartbeat CPU 0 instructions: 40000003 cycles: 13987590 heartbeat IPC: 2.85833 cumulative IPC: 2.85968 (Simulation time: 0 hr 26 min 6 sec) 
Heartbeat CPU 0 instructions: 50000001 cycles: 17487716 heartbeat IPC: 2.85704 cumulative IPC: 2.85915 (Simulation time: 0 hr 32 min 37 sec) 

Warmup complete CPU 0 instructions: 50000001 cycles: 17487716 (Simulation time: 0 hr 32 min 37 sec) 

Heartbeat CPU 0 instructions: 60000002 cycles: 24215199 heartbeat IPC: 1.48644 cumulative IPC: 1.48644 (Simulation time: 0 hr 40 min 52 sec) 
Heartbeat CPU 0 instructions: 70000002 cycles: 31154475 heartbeat IPC: 1.44107 cumulative IPC: 1.4634 (Simulation time: 0 hr 49 min 16 sec) 
Heartbeat CPU 0 instructions: 80000000 cycles: 37983753 heartbeat IPC: 1.46428 cumulative IPC: 1.4637 (Simulation time: 0 hr 57 min 44 sec) 
Heartbeat CPU 0 instructions: 90000000 cycles: 44866213 heartbeat IPC: 1.45297 cumulative IPC: 1.461 (Simulation time: 1 hr 5 min 59 sec) 
Heartbeat CPU 0 instructions: 100000001 cycles: 51677002 heartbeat IPC: 1.46826 cumulative IPC: 1.46245 (Simulation time: 1 hr 14 min 3 sec) 
Finished CPU 0 instructions: 50000000 cycles: 34189286 cumulative IPC: 1.46245 (Simulation time: 1 hr 14 min 3 sec) 

ChampSim completed all CPUs

Region of Interest Statistics

CPU 0 cumulative IPC: 1.46245 instructions: 50000000 cycles: 34189286
L1D TOTAL     ACCESS:   19351262  HIT:   17884424  MISS:    1466838
L1D LOAD      ACCESS:    6846082  HIT:    6184540  MISS:     661542
L1D RFO       ACCESS:    5982010  HIT:    5720609  MISS:     261401
L1D PREFETCH  ACCESS:    6523170  HIT:    5979275  MISS:     543895
L1D WRITEBACK ACCESS:          0  HIT:          0  MISS:          0
L1D PREFETCH  REQUESTED:    6896187  ISSUED:    6774298  USEFUL:     129290  USELESS:     414614
L1D AVERAGE MISS LATENCY: 24.4236 cycles
L1I TOTAL     ACCESS:   30140371  HIT:   27186651  MISS:    2953720
L1I LOAD      ACCESS:    9413587  HIT:    9351766  MISS:      61821
L1I RFO       ACCESS:          0  HIT:          0  MISS:          0
L1I PREFETCH  ACCESS:   20726784  HIT:   17834885  MISS:    2891899
L1I WRITEBACK ACCESS:          0  HIT:          0  MISS:          0
L1I PREFETCH  REQUESTED:   27996174  ISSUED:   27996174  USEFUL:    2388608  USELESS:     503284
L1I AVERAGE MISS LATENCY: 18.9513 cycles
L2C TOTAL     ACCESS:    6133869  HIT:    5467827  MISS:     666042
L2C LOAD      ACCESS:     637576  HIT:     517163  MISS:     120413
L2C RFO       ACCESS:     259361  HIT:     169822  MISS:      89539
L2C PREFETCH  ACCESS:    4737657  HIT:    4283515  MISS:     454142
L2C WRITEBACK ACCESS:     499275  HIT:     497327  MISS:       1948
L2C PREFETCH  REQUESTED:    5417217  ISSUED:    5403861  USEFUL:      13905  USELESS:     439960
L2C AVERAGE MISS LATENCY: 42.9571 cycles
LLC TOTAL     ACCESS:    2293275  HIT:    2238978  MISS:      54297
LLC LOAD      ACCESS:     120147  HIT:     113576  MISS:       6571
LLC RFO       ACCESS:      89523  HIT:      71570  MISS:      17953
LLC PREFETCH  ACCESS:    1945176  HIT:    1915727  MISS:      29449
LLC WRITEBACK ACCESS:     138429  HIT:     138105  MISS:        324
LLC PREFETCH  REQUESTED:          0  ISSUED:          0  USEFUL:       2530  USELESS:      26316
LLC AVERAGE MISS LATENCY: 183.196 cycles
Major fault: 0 Minor fault: 2768
CPU 0 L1I EPI prefetcher final stats
CPU 0 L1D next line prefetcher final stats

DRAM Statistics
 CHANNEL 0
 RQ ROW_BUFFER_HIT:      15749  ROW_BUFFER_MISS:      38215
 DBUS_CONGESTED:      33130
 WQ ROW_BUFFER_HIT:       2448  ROW_BUFFER_MISS:      19509  FULL:          0

 AVG_CONGESTED_CYCLE: 6

CPU 0 Branch Prediction Accuracy: 99.6798% MPKI: 0.58608 Average ROB Occupancy at Mispredict: 148.066

Branch types
NOT_BRANCH: 40848317 81.6966%
BRANCH_DIRECT_JUMP: 548372 1.09674%
BRANCH_INDIRECT: 189802 0.379604%
BRANCH_CONDITIONAL: 6372771 12.7455%
BRANCH_DIRECT_CALL: 862207 1.72441%
BRANCH_INDIRECT_CALL: 158149 0.316298%
BRANCH_RETURN: 1020345 2.04069%
BRANCH_OTHER: 0 0%

