Initialize SIGNATURE TABLE
ST_SET: 1
ST_WAY: 256
ST_TAG_BIT: 16
ST_TAG_MASK: ffff

Initialize PATTERN TABLE
PT_SET: 512
PT_WAY: 4
SIG_DELTA_BIT: 7
C_SIG_BIT: 4
C_DELTA_BIT: 4

Initialize PREFETCH FILTER
FILTER_SET: 1024

*** ChampSim Multicore Out-of-Order Simulator ***

Warmup Instructions: 50000000
Simulation Instructions: 50000000
Number of CPUs: 1
LLC sets: 2048
LLC ways: 16
Off-chip DRAM Size: 4096 MB Channels: 1 Width: 64-bit Data Rate: 3200 MT/s

CPU 0 runs /home/sankara2004/240C/hw1/ChampSim_2/ChampSim/ipc1_public/server_004.champsimtrace.xz
CPU 0 EPI prefetcher
CPU 0 L1D next line prefetcher
Heartbeat CPU 0 instructions: 10000002 cycles: 3229731 heartbeat IPC: 3.09623 cumulative IPC: 3.09623 (Simulation time: 0 hr 0 min 34 sec) 
Heartbeat CPU 0 instructions: 20000002 cycles: 6565345 heartbeat IPC: 2.99795 cumulative IPC: 3.0463 (Simulation time: 0 hr 1 min 9 sec) 
Heartbeat CPU 0 instructions: 30000000 cycles: 11682493 heartbeat IPC: 1.95421 cumulative IPC: 2.56795 (Simulation time: 0 hr 1 min 53 sec) 
Heartbeat CPU 0 instructions: 40000003 cycles: 15431683 heartbeat IPC: 2.66724 cumulative IPC: 2.59207 (Simulation time: 0 hr 2 min 31 sec) 
Heartbeat CPU 0 instructions: 50000003 cycles: 18660525 heartbeat IPC: 3.09709 cumulative IPC: 2.67945 (Simulation time: 0 hr 3 min 6 sec) 

Warmup complete CPU 0 instructions: 50000003 cycles: 18660525 (Simulation time: 0 hr 3 min 6 sec) 

Heartbeat CPU 0 instructions: 60000002 cycles: 27087161 heartbeat IPC: 1.18671 cumulative IPC: 1.18671 (Simulation time: 0 hr 3 min 48 sec) 
Heartbeat CPU 0 instructions: 70000000 cycles: 35007943 heartbeat IPC: 1.2625 cumulative IPC: 1.22343 (Simulation time: 0 hr 4 min 30 sec) 
Heartbeat CPU 0 instructions: 80000001 cycles: 55858051 heartbeat IPC: 0.479614 cumulative IPC: 0.806505 (Simulation time: 0 hr 5 min 52 sec) 
Heartbeat CPU 0 instructions: 90000003 cycles: 70672683 heartbeat IPC: 0.675008 cumulative IPC: 0.769051 (Simulation time: 0 hr 6 min 50 sec) 
Heartbeat CPU 0 instructions: 100000003 cycles: 79236112 heartbeat IPC: 1.16776 cumulative IPC: 0.825415 (Simulation time: 0 hr 7 min 32 sec) 
Finished CPU 0 instructions: 50000000 cycles: 60575587 cumulative IPC: 0.825415 (Simulation time: 0 hr 7 min 32 sec) 

ChampSim completed all CPUs

Region of Interest Statistics

CPU 0 cumulative IPC: 0.825415 instructions: 50000000 cycles: 60575587
L1D TOTAL     ACCESS:   21597119  HIT:   17526073  MISS:    4071046
L1D LOAD      ACCESS:    8582506  HIT:    6563547  MISS:    2018959
L1D RFO       ACCESS:    4641852  HIT:    4535053  MISS:     106799
L1D PREFETCH  ACCESS:    8372761  HIT:    6427473  MISS:    1945288
L1D WRITEBACK ACCESS:          0  HIT:          0  MISS:          0
L1D PREFETCH  REQUESTED:    8617661  ISSUED:    8528684  USEFUL:     105677  USELESS:    1839604
L1D AVERAGE MISS LATENCY: 23.0047 cycles
L1I TOTAL     ACCESS:   40441214  HIT:   38877863  MISS:    1563351
L1I LOAD      ACCESS:   10720711  HIT:   10646156  MISS:      74555
L1I RFO       ACCESS:          0  HIT:          0  MISS:          0
L1I PREFETCH  ACCESS:   29720503  HIT:   28231707  MISS:    1488796
L1I WRITEBACK ACCESS:          0  HIT:          0  MISS:          0
L1I PREFETCH  REQUESTED:   40785860  ISSUED:   40785860  USEFUL:    1040992  USELESS:     447732
L1I AVERAGE MISS LATENCY: 35.5801 cycles
L2C TOTAL     ACCESS:    7158396  HIT:    6102069  MISS:    1056327
L2C LOAD      ACCESS:    2046699  HIT:    1813354  MISS:     233345
L2C RFO       ACCESS:     105572  HIT:      56856  MISS:      48716
L2C PREFETCH  ACCESS:    4761098  HIT:    3988324  MISS:     772774
L2C WRITEBACK ACCESS:     245027  HIT:     243535  MISS:       1492
L2C PREFETCH  REQUESTED:    6768089  ISSUED:    6764048  USEFUL:      24820  USELESS:     747265
L2C AVERAGE MISS LATENCY: 60.092 cycles
LLC TOTAL     ACCESS:    2356375  HIT:    2116247  MISS:     240128
LLC LOAD      ACCESS:     232677  HIT:     191868  MISS:      40809
LLC RFO       ACCESS:      48712  HIT:      33585  MISS:      15127
LLC PREFETCH  ACCESS:    1933433  HIT:    1749600  MISS:     183833
LLC WRITEBACK ACCESS:     141553  HIT:     141194  MISS:        359
LLC PREFETCH  REQUESTED:          0  ISSUED:          0  USEFUL:      20009  USELESS:     163506
LLC AVERAGE MISS LATENCY: 178.916 cycles
Major fault: 0 Minor fault: 7599
CPU 0 L1I EPI prefetcher final stats
CPU 0 L1D next line prefetcher final stats

DRAM Statistics
 CHANNEL 0
 RQ ROW_BUFFER_HIT:      50482  ROW_BUFFER_MISS:     189246
 DBUS_CONGESTED:     103296
 WQ ROW_BUFFER_HIT:      10715  ROW_BUFFER_MISS:      44100  FULL:          0

 AVG_CONGESTED_CYCLE: 5

CPU 0 Branch Prediction Accuracy: 98.1603% MPKI: 3.89124 Average ROB Occupancy at Mispredict: 68.1782

Branch types
NOT_BRANCH: 39423755 78.8475%
BRANCH_DIRECT_JUMP: 551642 1.10328%
BRANCH_INDIRECT: 139368 0.278736%
BRANCH_CONDITIONAL: 7920858 15.8417%
BRANCH_DIRECT_CALL: 776072 1.55214%
BRANCH_INDIRECT_CALL: 194644 0.389288%
BRANCH_RETURN: 993311 1.98662%
BRANCH_OTHER: 0 0%

