Initialize SIGNATURE TABLE
ST_SET: 1
ST_WAY: 256
ST_TAG_BIT: 16
ST_TAG_MASK: ffff

Initialize PATTERN TABLE
PT_SET: 512
PT_WAY: 4
SIG_DELTA_BIT: 7
C_SIG_BIT: 4
C_DELTA_BIT: 4

Initialize PREFETCH FILTER
FILTER_SET: 1024

*** ChampSim Multicore Out-of-Order Simulator ***

Warmup Instructions: 50000000
Simulation Instructions: 50000000
Number of CPUs: 1
LLC sets: 2048
LLC ways: 16
Off-chip DRAM Size: 4096 MB Channels: 1 Width: 64-bit Data Rate: 3200 MT/s

CPU 0 runs /home/sankara2004/240C/hw1/ChampSim_2/ChampSim/ipc1_public/server_011.champsimtrace.xz
CPU 0 EPI prefetcher
CPU 0 L1D next line prefetcher
Heartbeat CPU 0 instructions: 10000002 cycles: 3207099 heartbeat IPC: 3.11808 cumulative IPC: 3.11808 (Simulation time: 0 hr 0 min 40 sec) 
Heartbeat CPU 0 instructions: 20000001 cycles: 6419255 heartbeat IPC: 3.11317 cumulative IPC: 3.11563 (Simulation time: 0 hr 1 min 15 sec) 
Heartbeat CPU 0 instructions: 30000001 cycles: 9674893 heartbeat IPC: 3.07159 cumulative IPC: 3.10081 (Simulation time: 0 hr 1 min 53 sec) 
Heartbeat CPU 0 instructions: 40000003 cycles: 12879207 heartbeat IPC: 3.12079 cumulative IPC: 3.10578 (Simulation time: 0 hr 2 min 30 sec) 
Heartbeat CPU 0 instructions: 50000000 cycles: 16089886 heartbeat IPC: 3.1146 cumulative IPC: 3.10754 (Simulation time: 0 hr 3 min 7 sec) 

Warmup complete CPU 0 instructions: 50000004 cycles: 16089887 (Simulation time: 0 hr 3 min 7 sec) 

Heartbeat CPU 0 instructions: 60000002 cycles: 23417789 heartbeat IPC: 1.36465 cumulative IPC: 1.36465 (Simulation time: 0 hr 3 min 49 sec) 
Heartbeat CPU 0 instructions: 70000001 cycles: 31102970 heartbeat IPC: 1.30121 cumulative IPC: 1.33217 (Simulation time: 0 hr 4 min 39 sec) 
Heartbeat CPU 0 instructions: 80000003 cycles: 39842457 heartbeat IPC: 1.14423 cumulative IPC: 1.26302 (Simulation time: 0 hr 5 min 21 sec) 
Heartbeat CPU 0 instructions: 90000001 cycles: 47304690 heartbeat IPC: 1.34008 cumulative IPC: 1.28144 (Simulation time: 0 hr 6 min 9 sec) 
Heartbeat CPU 0 instructions: 100000000 cycles: 54578460 heartbeat IPC: 1.3748 cumulative IPC: 1.29909 (Simulation time: 0 hr 6 min 56 sec) 
Finished CPU 0 instructions: 50000003 cycles: 38488585 cumulative IPC: 1.29909 (Simulation time: 0 hr 6 min 56 sec) 

ChampSim completed all CPUs

Region of Interest Statistics

CPU 0 cumulative IPC: 1.29909 instructions: 50000003 cycles: 38488585
L1D TOTAL     ACCESS:   18147724  HIT:   17116586  MISS:    1031138
L1D LOAD      ACCESS:    6776986  HIT:    6295445  MISS:     481541
L1D RFO       ACCESS:    4832058  HIT:    4750054  MISS:      82004
L1D PREFETCH  ACCESS:    6538680  HIT:    6071087  MISS:     467593
L1D WRITEBACK ACCESS:          0  HIT:          0  MISS:          0
L1D PREFETCH  REQUESTED:    6813818  ISSUED:    6721474  USEFUL:     137375  USELESS:     330214
L1D AVERAGE MISS LATENCY: 40.6009 cycles
L1I TOTAL     ACCESS:   32386624  HIT:   30579826  MISS:    1806798
L1I LOAD      ACCESS:    8885643  HIT:    8812800  MISS:      72843
L1I RFO       ACCESS:          0  HIT:          0  MISS:          0
L1I PREFETCH  ACCESS:   23500981  HIT:   21767026  MISS:    1733955
L1I WRITEBACK ACCESS:          0  HIT:          0  MISS:          0
L1I PREFETCH  REQUESTED:   29922345  ISSUED:   29922345  USEFUL:    1217757  USELESS:     516095
L1I AVERAGE MISS LATENCY: 32.393 cycles
L2C TOTAL     ACCESS:    3696072  HIT:    2564958  MISS:    1131114
L2C LOAD      ACCESS:     501710  HIT:     269603  MISS:     232107
L2C RFO       ACCESS:      80160  HIT:      34352  MISS:      45808
L2C PREFETCH  ACCESS:    2846084  HIT:    1994038  MISS:     852046
L2C WRITEBACK ACCESS:     268118  HIT:     266965  MISS:       1153
L2C PREFETCH  REQUESTED:    3515895  ISSUED:    3508628  USEFUL:      28135  USELESS:     823632
L2C AVERAGE MISS LATENCY: 51.8083 cycles
LLC TOTAL     ACCESS:    2180340  HIT:    1998360  MISS:     181980
LLC LOAD      ACCESS:     231728  HIT:     205631  MISS:      26097
LLC RFO       ACCESS:      45801  HIT:      32522  MISS:      13279
LLC PREFETCH  ACCESS:    1751111  HIT:    1608925  MISS:     142186
LLC WRITEBACK ACCESS:     151700  HIT:     151282  MISS:        418
LLC PREFETCH  REQUESTED:          0  ISSUED:          0  USEFUL:      17098  USELESS:     124565
LLC AVERAGE MISS LATENCY: 178.652 cycles
Major fault: 0 Minor fault: 6980
CPU 0 L1I EPI prefetcher final stats
CPU 0 L1D next line prefetcher final stats

DRAM Statistics
 CHANNEL 0
 RQ ROW_BUFFER_HIT:      34588  ROW_BUFFER_MISS:     146961
 DBUS_CONGESTED:      84331
 WQ ROW_BUFFER_HIT:      12024  ROW_BUFFER_MISS:      49677  FULL:          0

 AVG_CONGESTED_CYCLE: 5

CPU 0 Branch Prediction Accuracy: 97.5565% MPKI: 4.59006 Average ROB Occupancy at Mispredict: 63.4003

Branch types
NOT_BRANCH: 40607199 81.2144%
BRANCH_DIRECT_JUMP: 451601 0.903202%
BRANCH_INDIRECT: 151580 0.30316%
BRANCH_CONDITIONAL: 7041635 14.0833%
BRANCH_DIRECT_CALL: 647827 1.29565%
BRANCH_INDIRECT_CALL: 211373 0.422746%
BRANCH_RETURN: 888439 1.77688%
BRANCH_OTHER: 0 0%

