Initialize SIGNATURE TABLE
ST_SET: 1
ST_WAY: 256
ST_TAG_BIT: 16
ST_TAG_MASK: ffff

Initialize PATTERN TABLE
PT_SET: 512
PT_WAY: 4
SIG_DELTA_BIT: 7
C_SIG_BIT: 4
C_DELTA_BIT: 4

Initialize PREFETCH FILTER
FILTER_SET: 1024

*** ChampSim Multicore Out-of-Order Simulator ***

Warmup Instructions: 50000000
Simulation Instructions: 50000000
Number of CPUs: 1
LLC sets: 2048
LLC ways: 16
Off-chip DRAM Size: 4096 MB Channels: 1 Width: 64-bit Data Rate: 3200 MT/s

CPU 0 runs /home/sankara2004/240C/hw1/ChampSim_2/ChampSim/ipc1_public/server_035.champsimtrace.xz
LHT KB: 126.25
SCC KB: 1.56
Total KB: 127.81
CPU 0 L1D next line prefetcher
Heartbeat CPU 0 instructions: 10000001 cycles: 3337051 heartbeat IPC: 2.99666 cumulative IPC: 2.99666 (Simulation time: 0 hr 5 min 52 sec) 
Heartbeat CPU 0 instructions: 20000000 cycles: 6673687 heartbeat IPC: 2.99703 cumulative IPC: 2.99684 (Simulation time: 0 hr 11 min 40 sec) 
Heartbeat CPU 0 instructions: 30000000 cycles: 10007392 heartbeat IPC: 2.99967 cumulative IPC: 2.99778 (Simulation time: 0 hr 17 min 30 sec) 
Heartbeat CPU 0 instructions: 40000000 cycles: 13345367 heartbeat IPC: 2.99583 cumulative IPC: 2.99729 (Simulation time: 0 hr 23 min 17 sec) 
Heartbeat CPU 0 instructions: 50000003 cycles: 16680104 heartbeat IPC: 2.99874 cumulative IPC: 2.99758 (Simulation time: 0 hr 29 min 0 sec) 

Warmup complete CPU 0 instructions: 50000003 cycles: 16680104 (Simulation time: 0 hr 29 min 0 sec) 

Heartbeat CPU 0 instructions: 60000001 cycles: 25273678 heartbeat IPC: 1.16366 cumulative IPC: 1.16366 (Simulation time: 0 hr 36 min 36 sec) 
Heartbeat CPU 0 instructions: 70000003 cycles: 33500646 heartbeat IPC: 1.21551 cumulative IPC: 1.18902 (Simulation time: 0 hr 44 min 22 sec) 
Heartbeat CPU 0 instructions: 80000001 cycles: 41870632 heartbeat IPC: 1.19474 cumulative IPC: 1.19092 (Simulation time: 0 hr 52 min 16 sec) 
Heartbeat CPU 0 instructions: 90000002 cycles: 49588465 heartbeat IPC: 1.2957 cumulative IPC: 1.2155 (Simulation time: 0 hr 59 min 55 sec) 
Heartbeat CPU 0 instructions: 100000002 cycles: 57931921 heartbeat IPC: 1.19854 cumulative IPC: 1.21207 (Simulation time: 1 hr 7 min 20 sec) 
Finished CPU 0 instructions: 50000003 cycles: 41251818 cumulative IPC: 1.21207 (Simulation time: 1 hr 7 min 20 sec) 

ChampSim completed all CPUs

Region of Interest Statistics

CPU 0 cumulative IPC: 1.21207 instructions: 50000003 cycles: 41251818
L1D TOTAL     ACCESS:   18275661  HIT:   16771482  MISS:    1504179
L1D LOAD      ACCESS:    6168012  HIT:    5466742  MISS:     701270
L1D RFO       ACCESS:    6155291  HIT:    6002719  MISS:     152572
L1D PREFETCH  ACCESS:    5952358  HIT:    5302021  MISS:     650337
L1D WRITEBACK ACCESS:          0  HIT:          0  MISS:          0
L1D PREFETCH  REQUESTED:    6214821  ISSUED:    6115882  USEFUL:     138555  USELESS:     511787
L1D AVERAGE MISS LATENCY: 45.002 cycles
L1I TOTAL     ACCESS:   25208539  HIT:   19861296  MISS:    5347243
L1I LOAD      ACCESS:    9633838  HIT:    9154638  MISS:     479200
L1I RFO       ACCESS:          0  HIT:          0  MISS:          0
L1I PREFETCH  ACCESS:   15574701  HIT:   10706658  MISS:    4868043
L1I WRITEBACK ACCESS:          0  HIT:          0  MISS:          0
L1I PREFETCH  REQUESTED:   17767431  ISSUED:   17767425  USEFUL:    3030776  USELESS:    1837158
L1I AVERAGE MISS LATENCY: 14.2464 cycles
L2C TOTAL     ACCESS:    8993099  HIT:    8699020  MISS:     294079
L2C LOAD      ACCESS:     767563  HIT:     642262  MISS:     125301
L2C RFO       ACCESS:     150626  HIT:     128987  MISS:      21639
L2C PREFETCH  ACCESS:    7709952  HIT:    7564227  MISS:     145725
L2C WRITEBACK ACCESS:     364958  HIT:     363544  MISS:       1414
L2C PREFETCH  REQUESTED:    5337784  ISSUED:    5336104  USEFUL:      14429  USELESS:     130425
L2C AVERAGE MISS LATENCY: 169.455 cycles
LLC TOTAL     ACCESS:    1859347  HIT:    1585409  MISS:     273938
LLC LOAD      ACCESS:     124984  HIT:      36457  MISS:      88527
LLC RFO       ACCESS:      21639  HIT:       9886  MISS:      11753
LLC PREFETCH  ACCESS:    1609771  HIT:    1437103  MISS:     172668
LLC WRITEBACK ACCESS:     102953  HIT:     101963  MISS:        990
LLC PREFETCH  REQUESTED:          0  ISSUED:          0  USEFUL:      24495  USELESS:     147056
LLC AVERAGE MISS LATENCY: 216.038 cycles
Major fault: 0 Minor fault: 5554
CPU 0 L1D next line prefetcher final stats

DRAM Statistics
 CHANNEL 0
 RQ ROW_BUFFER_HIT:      67061  ROW_BUFFER_MISS:     205879
 DBUS_CONGESTED:     152923
 WQ ROW_BUFFER_HIT:      18721  ROW_BUFFER_MISS:      72508  FULL:          0

 AVG_CONGESTED_CYCLE: 5

CPU 0 Branch Prediction Accuracy: 99.9115% MPKI: 0.17232 Average ROB Occupancy at Mispredict: 204.7

Branch types
NOT_BRANCH: 40267291 80.5346%
BRANCH_DIRECT_JUMP: 771900 1.5438%
BRANCH_INDIRECT: 108179 0.216358%
BRANCH_CONDITIONAL: 6307179 12.6144%
BRANCH_DIRECT_CALL: 1060894 2.12179%
BRANCH_INDIRECT_CALL: 211719 0.423438%
BRANCH_RETURN: 1272635 2.54527%
BRANCH_OTHER: 0 0%

