Initialize SIGNATURE TABLE
ST_SET: 1
ST_WAY: 256
ST_TAG_BIT: 16
ST_TAG_MASK: ffff

Initialize PATTERN TABLE
PT_SET: 512
PT_WAY: 4
SIG_DELTA_BIT: 7
C_SIG_BIT: 4
C_DELTA_BIT: 4

Initialize PREFETCH FILTER
FILTER_SET: 1024

*** ChampSim Multicore Out-of-Order Simulator ***

Warmup Instructions: 50000000
Simulation Instructions: 50000000
Number of CPUs: 1
LLC sets: 2048
LLC ways: 16
Off-chip DRAM Size: 4096 MB Channels: 1 Width: 64-bit Data Rate: 3200 MT/s

CPU 0 runs /home/sankara2004/240C/hw1/ChampSim_2/ChampSim/ipc1_public/server_030.champsimtrace.xz
CPU 0 EPI prefetcher
CPU 0 L1D next line prefetcher
Heartbeat CPU 0 instructions: 10000003 cycles: 3504740 heartbeat IPC: 2.85328 cumulative IPC: 2.85328 (Simulation time: 0 hr 0 min 37 sec) 
Heartbeat CPU 0 instructions: 20000003 cycles: 7009188 heartbeat IPC: 2.85352 cumulative IPC: 2.8534 (Simulation time: 0 hr 1 min 13 sec) 
Heartbeat CPU 0 instructions: 30000000 cycles: 10512966 heartbeat IPC: 2.85406 cumulative IPC: 2.85362 (Simulation time: 0 hr 1 min 50 sec) 
Heartbeat CPU 0 instructions: 40000002 cycles: 14016222 heartbeat IPC: 2.85449 cumulative IPC: 2.85384 (Simulation time: 0 hr 2 min 26 sec) 
Heartbeat CPU 0 instructions: 50000002 cycles: 17523023 heartbeat IPC: 2.8516 cumulative IPC: 2.85339 (Simulation time: 0 hr 3 min 2 sec) 

Warmup complete CPU 0 instructions: 50000002 cycles: 17523023 (Simulation time: 0 hr 3 min 2 sec) 

Heartbeat CPU 0 instructions: 60000000 cycles: 24478933 heartbeat IPC: 1.43763 cumulative IPC: 1.43763 (Simulation time: 0 hr 3 min 46 sec) 
Heartbeat CPU 0 instructions: 70000000 cycles: 31446377 heartbeat IPC: 1.43525 cumulative IPC: 1.43644 (Simulation time: 0 hr 4 min 29 sec) 
Heartbeat CPU 0 instructions: 80000001 cycles: 38406389 heartbeat IPC: 1.43678 cumulative IPC: 1.43655 (Simulation time: 0 hr 5 min 13 sec) 
*** Reached end of trace for Core: 0 Repeating trace: /home/sankara2004/240C/hw1/ChampSim_2/ChampSim/ipc1_public/server_030.champsimtrace.xz
Heartbeat CPU 0 instructions: 90000002 cycles: 45366941 heartbeat IPC: 1.43667 cumulative IPC: 1.43658 (Simulation time: 0 hr 5 min 56 sec) 
Heartbeat CPU 0 instructions: 100000002 cycles: 52310010 heartbeat IPC: 1.44029 cumulative IPC: 1.43732 (Simulation time: 0 hr 6 min 40 sec) 
Finished CPU 0 instructions: 50000000 cycles: 34786987 cumulative IPC: 1.43732 (Simulation time: 0 hr 6 min 40 sec) 

ChampSim completed all CPUs

Region of Interest Statistics

CPU 0 cumulative IPC: 1.43732 instructions: 50000000 cycles: 34786987
L1D TOTAL     ACCESS:   19156252  HIT:   17080419  MISS:    2075833
L1D LOAD      ACCESS:    6764361  HIT:    5710707  MISS:    1053654
L1D RFO       ACCESS:    6173645  HIT:    5887883  MISS:     285762
L1D PREFETCH  ACCESS:    6218246  HIT:    5481829  MISS:     736417
L1D WRITEBACK ACCESS:          0  HIT:          0  MISS:          0
L1D PREFETCH  REQUESTED:    6815391  ISSUED:    6681801  USEFUL:     180937  USELESS:     555573
L1D AVERAGE MISS LATENCY: 18.5437 cycles
L1I TOTAL     ACCESS:   29096555  HIT:   25566179  MISS:    3530376
L1I LOAD      ACCESS:    9789702  HIT:    9740144  MISS:      49558
L1I RFO       ACCESS:          0  HIT:          0  MISS:          0
L1I PREFETCH  ACCESS:   19306853  HIT:   15826035  MISS:    3480818
L1I WRITEBACK ACCESS:          0  HIT:          0  MISS:          0
L1I PREFETCH  REQUESTED:   23946018  ISSUED:   23946018  USEFUL:    2944400  USELESS:     536441
L1I AVERAGE MISS LATENCY: 18.0737 cycles
L2C TOTAL     ACCESS:    7974282  HIT:    7334067  MISS:     640215
L2C LOAD      ACCESS:     913645  HIT:     795326  MISS:     118319
L2C RFO       ACCESS:     283395  HIT:     232424  MISS:      50971
L2C PREFETCH  ACCESS:    6161714  HIT:    5694319  MISS:     467395
L2C WRITEBACK ACCESS:     615528  HIT:     611998  MISS:       3530
L2C PREFETCH  REQUESTED:    7121544  ISSUED:    7097976  USEFUL:      10515  USELESS:     456401
L2C AVERAGE MISS LATENCY: 35.0487 cycles
LLC TOTAL     ACCESS:    2470384  HIT:    2447129  MISS:      23255
LLC LOAD      ACCESS:     118208  HIT:     115279  MISS:       2929
LLC RFO       ACCESS:      50951  HIT:      49180  MISS:       1771
LLC PREFETCH  ACCESS:    2202581  HIT:    2184132  MISS:      18449
LLC WRITEBACK ACCESS:      98644  HIT:      98538  MISS:        106
LLC PREFETCH  REQUESTED:          0  ISSUED:          0  USEFUL:        864  USELESS:      16115
LLC AVERAGE MISS LATENCY: 148.349 cycles
Major fault: 0 Minor fault: 2041
CPU 0 L1I EPI prefetcher final stats
CPU 0 L1D next line prefetcher final stats

DRAM Statistics
 CHANNEL 0
 RQ ROW_BUFFER_HIT:       7011  ROW_BUFFER_MISS:      16138
 DBUS_CONGESTED:       7295
 WQ ROW_BUFFER_HIT:        192  ROW_BUFFER_MISS:       2429  FULL:          0

 AVG_CONGESTED_CYCLE: 5

CPU 0 Branch Prediction Accuracy: 99.8445% MPKI: 0.29148 Average ROB Occupancy at Mispredict: 177.951

Branch types
NOT_BRANCH: 40628081 81.2562%
BRANCH_DIRECT_JUMP: 490941 0.981882%
BRANCH_INDIRECT: 175854 0.351708%
BRANCH_CONDITIONAL: 6321415 12.6428%
BRANCH_DIRECT_CALL: 1002072 2.00414%
BRANCH_INDIRECT_CALL: 189783 0.379566%
BRANCH_RETURN: 1191851 2.3837%
BRANCH_OTHER: 0 0%

