Initialize SIGNATURE TABLE
ST_SET: 1
ST_WAY: 256
ST_TAG_BIT: 16
ST_TAG_MASK: ffff

Initialize PATTERN TABLE
PT_SET: 512
PT_WAY: 4
SIG_DELTA_BIT: 7
C_SIG_BIT: 4
C_DELTA_BIT: 4

Initialize PREFETCH FILTER
FILTER_SET: 1024

*** ChampSim Multicore Out-of-Order Simulator ***

Warmup Instructions: 50000000
Simulation Instructions: 50000000
Number of CPUs: 1
LLC sets: 2048
LLC ways: 16
Off-chip DRAM Size: 4096 MB Channels: 1 Width: 64-bit Data Rate: 3200 MT/s

CPU 0 runs /home/sankara2004/240C/hw1/ChampSim_2/ChampSim/ipc1_public/server_039.champsimtrace.xz
LHT KB: 126.25
SCC KB: 1.56
Total KB: 127.81
CPU 0 L1D next line prefetcher
Heartbeat CPU 0 instructions: 10000003 cycles: 3451757 heartbeat IPC: 2.89708 cumulative IPC: 2.89708 (Simulation time: 0 hr 5 min 50 sec) 
Heartbeat CPU 0 instructions: 20000002 cycles: 6896528 heartbeat IPC: 2.90295 cumulative IPC: 2.90001 (Simulation time: 0 hr 11 min 37 sec) 
Heartbeat CPU 0 instructions: 30000001 cycles: 10343157 heartbeat IPC: 2.90139 cumulative IPC: 2.90047 (Simulation time: 0 hr 17 min 25 sec) 
Heartbeat CPU 0 instructions: 40000002 cycles: 13785066 heartbeat IPC: 2.90536 cumulative IPC: 2.90169 (Simulation time: 0 hr 23 min 9 sec) 
Heartbeat CPU 0 instructions: 50000001 cycles: 17226344 heartbeat IPC: 2.9059 cumulative IPC: 2.90253 (Simulation time: 0 hr 28 min 49 sec) 

Warmup complete CPU 0 instructions: 50000001 cycles: 17226344 (Simulation time: 0 hr 28 min 49 sec) 

Heartbeat CPU 0 instructions: 60000000 cycles: 23085441 heartbeat IPC: 1.70675 cumulative IPC: 1.70675 (Simulation time: 0 hr 36 min 25 sec) 
Heartbeat CPU 0 instructions: 70000000 cycles: 28934562 heartbeat IPC: 1.70966 cumulative IPC: 1.7082 (Simulation time: 0 hr 44 min 10 sec) 
Heartbeat CPU 0 instructions: 80000000 cycles: 34805143 heartbeat IPC: 1.70341 cumulative IPC: 1.7066 (Simulation time: 0 hr 52 min 5 sec) 
Heartbeat CPU 0 instructions: 90000001 cycles: 40666929 heartbeat IPC: 1.70596 cumulative IPC: 1.70644 (Simulation time: 0 hr 59 min 46 sec) 
Heartbeat CPU 0 instructions: 100000002 cycles: 46537140 heartbeat IPC: 1.70352 cumulative IPC: 1.70586 (Simulation time: 1 hr 7 min 18 sec) 
Finished CPU 0 instructions: 50000001 cycles: 29310796 cumulative IPC: 1.70586 (Simulation time: 1 hr 7 min 18 sec) 

ChampSim completed all CPUs

Region of Interest Statistics

CPU 0 cumulative IPC: 1.70586 instructions: 50000001 cycles: 29310796
L1D TOTAL     ACCESS:   20023959  HIT:   19529265  MISS:     494694
L1D LOAD      ACCESS:    6557668  HIT:    6335987  MISS:     221681
L1D RFO       ACCESS:    7088548  HIT:    7021651  MISS:      66897
L1D PREFETCH  ACCESS:    6377743  HIT:    6171627  MISS:     206116
L1D WRITEBACK ACCESS:          0  HIT:          0  MISS:          0
L1D PREFETCH  REQUESTED:    6573924  ISSUED:    6448818  USEFUL:      49992  USELESS:     156128
L1D AVERAGE MISS LATENCY: 15.0482 cycles
L1I TOTAL     ACCESS:   25789320  HIT:   20364448  MISS:    5424872
L1I LOAD      ACCESS:    9257069  HIT:    8766620  MISS:     490449
L1I RFO       ACCESS:          0  HIT:          0  MISS:          0
L1I PREFETCH  ACCESS:   16532251  HIT:   11597828  MISS:    4934423
L1I WRITEBACK ACCESS:          0  HIT:          0  MISS:          0
L1I PREFETCH  REQUESTED:   18783860  ISSUED:   18783860  USEFUL:    3736791  USELESS:    1197665
L1I AVERAGE MISS LATENCY: 13.2611 cycles
L2C TOTAL     ACCESS:    7894944  HIT:    7894938  MISS:          6
L2C LOAD      ACCESS:     292336  HIT:     292336  MISS:          0
L2C RFO       ACCESS:      66755  HIT:      66755  MISS:          0
L2C PREFETCH  ACCESS:    7355859  HIT:    7355854  MISS:          5
L2C WRITEBACK ACCESS:     179994  HIT:     179993  MISS:          1
L2C PREFETCH  REQUESTED:    3247508  ISSUED:    3247503  USEFUL:          5  USELESS:          2
L2C AVERAGE MISS LATENCY: 25 cycles
LLC TOTAL     ACCESS:     211990  HIT:     211459  MISS:        531
LLC LOAD      ACCESS:          0  HIT:          0  MISS:          0
LLC RFO       ACCESS:          0  HIT:          0  MISS:          0
LLC PREFETCH  ACCESS:     211990  HIT:     211459  MISS:        531
LLC WRITEBACK ACCESS:          0  HIT:          0  MISS:          0
LLC PREFETCH  REQUESTED:          0  ISSUED:          0  USEFUL:          0  USELESS:          0
LLC AVERAGE MISS LATENCY: 165.599 cycles
Major fault: 0 Minor fault: 361
CPU 0 L1D next line prefetcher final stats

DRAM Statistics
 CHANNEL 0
 RQ ROW_BUFFER_HIT:         30  ROW_BUFFER_MISS:        501
 DBUS_CONGESTED:          1
 WQ ROW_BUFFER_HIT:          0  ROW_BUFFER_MISS:          0  FULL:          0

 AVG_CONGESTED_CYCLE: 7

CPU 0 Branch Prediction Accuracy: 99.9091% MPKI: 0.1547 Average ROB Occupancy at Mispredict: 242.78

Branch types
NOT_BRANCH: 41495040 82.9901%
BRANCH_DIRECT_JUMP: 491309 0.982618%
BRANCH_INDIRECT: 0 0%
BRANCH_CONDITIONAL: 5595263 11.1905%
BRANCH_DIRECT_CALL: 1028409 2.05682%
BRANCH_INDIRECT_CALL: 180757 0.361514%
BRANCH_RETURN: 1209170 2.41834%
BRANCH_OTHER: 0 0%

