Initialize SIGNATURE TABLE
ST_SET: 1
ST_WAY: 256
ST_TAG_BIT: 16
ST_TAG_MASK: ffff

Initialize PATTERN TABLE
PT_SET: 512
PT_WAY: 4
SIG_DELTA_BIT: 7
C_SIG_BIT: 4
C_DELTA_BIT: 4

Initialize PREFETCH FILTER
FILTER_SET: 1024

*** ChampSim Multicore Out-of-Order Simulator ***

Warmup Instructions: 50000000
Simulation Instructions: 50000000
Number of CPUs: 1
LLC sets: 2048
LLC ways: 16
Off-chip DRAM Size: 4096 MB Channels: 1 Width: 64-bit Data Rate: 3200 MT/s

CPU 0 runs /home/sankara2004/240C/hw1/ChampSim_2/ChampSim/ipc1_public/server_024.champsimtrace.xz
LHT KB: 126.25
SCC KB: 1.56
Total KB: 127.81
CPU 0 L1D next line prefetcher
Heartbeat CPU 0 instructions: 10000000 cycles: 3497277 heartbeat IPC: 2.85937 cumulative IPC: 2.85937 (Simulation time: 0 hr 5 min 41 sec) 
Heartbeat CPU 0 instructions: 20000002 cycles: 6987132 heartbeat IPC: 2.86545 cumulative IPC: 2.86241 (Simulation time: 0 hr 11 min 19 sec) 
Heartbeat CPU 0 instructions: 30000000 cycles: 10487420 heartbeat IPC: 2.85691 cumulative IPC: 2.86057 (Simulation time: 0 hr 17 min 1 sec) 
Heartbeat CPU 0 instructions: 40000000 cycles: 13985408 heartbeat IPC: 2.85879 cumulative IPC: 2.86012 (Simulation time: 0 hr 22 min 40 sec) 
Heartbeat CPU 0 instructions: 50000001 cycles: 17473021 heartbeat IPC: 2.86729 cumulative IPC: 2.86155 (Simulation time: 0 hr 28 min 15 sec) 

Warmup complete CPU 0 instructions: 50000001 cycles: 17473021 (Simulation time: 0 hr 28 min 15 sec) 

Heartbeat CPU 0 instructions: 60000000 cycles: 24476897 heartbeat IPC: 1.42778 cumulative IPC: 1.42778 (Simulation time: 0 hr 35 min 38 sec) 
Heartbeat CPU 0 instructions: 70000000 cycles: 31529087 heartbeat IPC: 1.418 cumulative IPC: 1.42287 (Simulation time: 0 hr 43 min 6 sec) 
*** Reached end of trace for Core: 0 Repeating trace: /home/sankara2004/240C/hw1/ChampSim_2/ChampSim/ipc1_public/server_024.champsimtrace.xz
Heartbeat CPU 0 instructions: 80000003 cycles: 38560589 heartbeat IPC: 1.42217 cumulative IPC: 1.42264 (Simulation time: 0 hr 50 min 41 sec) 
Heartbeat CPU 0 instructions: 90000003 cycles: 45654701 heartbeat IPC: 1.40962 cumulative IPC: 1.41936 (Simulation time: 0 hr 58 min 4 sec) 
Heartbeat CPU 0 instructions: 100000002 cycles: 52710338 heartbeat IPC: 1.41731 cumulative IPC: 1.41895 (Simulation time: 1 hr 5 min 16 sec) 
Finished CPU 0 instructions: 50000001 cycles: 35237317 cumulative IPC: 1.41895 (Simulation time: 1 hr 5 min 16 sec) 

ChampSim completed all CPUs

Region of Interest Statistics

CPU 0 cumulative IPC: 1.41895 instructions: 50000001 cycles: 35237317
L1D TOTAL     ACCESS:   19994587  HIT:   18476484  MISS:    1518103
L1D LOAD      ACCESS:    7082486  HIT:    6402295  MISS:     680191
L1D RFO       ACCESS:    6155500  HIT:    5881481  MISS:     274019
L1D PREFETCH  ACCESS:    6756601  HIT:    6192708  MISS:     563893
L1D WRITEBACK ACCESS:          0  HIT:          0  MISS:          0
L1D PREFETCH  REQUESTED:    7137088  ISSUED:    7019379  USEFUL:     136105  USELESS:     427793
L1D AVERAGE MISS LATENCY: 25.4073 cycles
L1I TOTAL     ACCESS:   19996766  HIT:   16258109  MISS:    3738657
L1I LOAD      ACCESS:    9142979  HIT:    8433841  MISS:     709138
L1I RFO       ACCESS:          0  HIT:          0  MISS:          0
L1I PREFETCH  ACCESS:   10853787  HIT:    7824268  MISS:    3029519
L1I WRITEBACK ACCESS:          0  HIT:          0  MISS:          0
L1I PREFETCH  REQUESTED:   13365664  ISSUED:   13365664  USEFUL:    1906690  USELESS:    1122811
L1I AVERAGE MISS LATENCY: 14.1484 cycles
L2C TOTAL     ACCESS:    7181773  HIT:    6495160  MISS:     686613
L2C LOAD      ACCESS:     693420  HIT:     556829  MISS:     136591
L2C RFO       ACCESS:     272286  HIT:     188083  MISS:      84203
L2C PREFETCH  ACCESS:    5695856  HIT:    5235302  MISS:     460554
L2C WRITEBACK ACCESS:     520211  HIT:     514946  MISS:       5265
L2C PREFETCH  REQUESTED:    4180391  ISSUED:    4177335  USEFUL:      18965  USELESS:     440570
L2C AVERAGE MISS LATENCY: 43.2023 cycles
LLC TOTAL     ACCESS:    1952538  HIT:    1902461  MISS:      50077
LLC LOAD      ACCESS:     136379  HIT:     131313  MISS:       5066
LLC RFO       ACCESS:      84177  HIT:      61954  MISS:      22223
LLC PREFETCH  ACCESS:    1589247  HIT:    1566701  MISS:      22546
LLC WRITEBACK ACCESS:     142735  HIT:     142493  MISS:        242
LLC PREFETCH  REQUESTED:          0  ISSUED:          0  USEFUL:       1749  USELESS:      20900
LLC AVERAGE MISS LATENCY: 202.227 cycles
Major fault: 0 Minor fault: 2378
CPU 0 L1D next line prefetcher final stats

DRAM Statistics
 CHANNEL 0
 RQ ROW_BUFFER_HIT:      17277  ROW_BUFFER_MISS:      32553
 DBUS_CONGESTED:      37083
 WQ ROW_BUFFER_HIT:       2563  ROW_BUFFER_MISS:      22956  FULL:          0

 AVG_CONGESTED_CYCLE: 6

CPU 0 Branch Prediction Accuracy: 99.7477% MPKI: 0.46156 Average ROB Occupancy at Mispredict: 152.219

Branch types
NOT_BRANCH: 40853597 81.7072%
BRANCH_DIRECT_JUMP: 566815 1.13363%
BRANCH_INDIRECT: 197171 0.394342%
BRANCH_CONDITIONAL: 6308407 12.6168%
BRANCH_DIRECT_CALL: 876399 1.7528%
BRANCH_INDIRECT_CALL: 160491 0.320982%
BRANCH_RETURN: 1036885 2.07377%
BRANCH_OTHER: 0 0%

