Initialize SIGNATURE TABLE
ST_SET: 1
ST_WAY: 256
ST_TAG_BIT: 16
ST_TAG_MASK: ffff

Initialize PATTERN TABLE
PT_SET: 512
PT_WAY: 4
SIG_DELTA_BIT: 7
C_SIG_BIT: 4
C_DELTA_BIT: 4

Initialize PREFETCH FILTER
FILTER_SET: 1024

*** ChampSim Multicore Out-of-Order Simulator ***

Warmup Instructions: 50000000
Simulation Instructions: 50000000
Number of CPUs: 1
LLC sets: 2048
LLC ways: 16
Off-chip DRAM Size: 4096 MB Channels: 1 Width: 64-bit Data Rate: 3200 MT/s

CPU 0 runs /home/sankara2004/240C/hw1/ChampSim_2/ChampSim/ipc1_public/server_032.champsimtrace.xz
CPU 0 EPI prefetcher
CPU 0 L1D next line prefetcher
Heartbeat CPU 0 instructions: 10000002 cycles: 3522103 heartbeat IPC: 2.83921 cumulative IPC: 2.83921 (Simulation time: 0 hr 6 min 31 sec) 
Heartbeat CPU 0 instructions: 20000003 cycles: 7044763 heartbeat IPC: 2.83876 cumulative IPC: 2.83899 (Simulation time: 0 hr 13 min 0 sec) 
Heartbeat CPU 0 instructions: 30000000 cycles: 10567952 heartbeat IPC: 2.83834 cumulative IPC: 2.83877 (Simulation time: 0 hr 19 min 33 sec) 
Heartbeat CPU 0 instructions: 40000003 cycles: 14093966 heartbeat IPC: 2.83606 cumulative IPC: 2.83809 (Simulation time: 0 hr 26 min 2 sec) 
Heartbeat CPU 0 instructions: 50000000 cycles: 17618667 heartbeat IPC: 2.83712 cumulative IPC: 2.8379 (Simulation time: 0 hr 32 min 31 sec) 

Warmup complete CPU 0 instructions: 50000004 cycles: 17618668 (Simulation time: 0 hr 32 min 31 sec) 

Heartbeat CPU 0 instructions: 60000002 cycles: 24353753 heartbeat IPC: 1.48476 cumulative IPC: 1.48476 (Simulation time: 0 hr 40 min 47 sec) 
Heartbeat CPU 0 instructions: 70000000 cycles: 31086010 heartbeat IPC: 1.48539 cumulative IPC: 1.48507 (Simulation time: 0 hr 49 min 11 sec) 
*** Reached end of trace for Core: 0 Repeating trace: /home/sankara2004/240C/hw1/ChampSim_2/ChampSim/ipc1_public/server_032.champsimtrace.xz
Heartbeat CPU 0 instructions: 80000003 cycles: 37818862 heartbeat IPC: 1.48526 cumulative IPC: 1.48513 (Simulation time: 0 hr 57 min 41 sec) 
Heartbeat CPU 0 instructions: 90000002 cycles: 44524963 heartbeat IPC: 1.49118 cumulative IPC: 1.48664 (Simulation time: 1 hr 5 min 57 sec) 
Heartbeat CPU 0 instructions: 100000001 cycles: 51243806 heartbeat IPC: 1.48835 cumulative IPC: 1.48698 (Simulation time: 1 hr 14 min 3 sec) 
Finished CPU 0 instructions: 50000002 cycles: 33625140 cumulative IPC: 1.48698 (Simulation time: 1 hr 14 min 3 sec) 

ChampSim completed all CPUs

Region of Interest Statistics

CPU 0 cumulative IPC: 1.48698 instructions: 50000002 cycles: 33625140
L1D TOTAL     ACCESS:   19819296  HIT:   17991196  MISS:    1828100
L1D LOAD      ACCESS:    6774289  HIT:    5980048  MISS:     794241
L1D RFO       ACCESS:    6553039  HIT:    6259133  MISS:     293906
L1D PREFETCH  ACCESS:    6491968  HIT:    5752015  MISS:     739953
L1D WRITEBACK ACCESS:          0  HIT:          0  MISS:          0
L1D PREFETCH  REQUESTED:    6824172  ISSUED:    6686076  USEFUL:     170269  USELESS:     569682
L1D AVERAGE MISS LATENCY: 19.0592 cycles
L1I TOTAL     ACCESS:   27678224  HIT:   23979819  MISS:    3698405
L1I LOAD      ACCESS:    9674221  HIT:    9599658  MISS:      74563
L1I RFO       ACCESS:          0  HIT:          0  MISS:          0
L1I PREFETCH  ACCESS:   18004003  HIT:   14380161  MISS:    3623842
L1I WRITEBACK ACCESS:          0  HIT:          0  MISS:          0
L1I PREFETCH  REQUESTED:   22316577  ISSUED:   22316577  USEFUL:    3142685  USELESS:     481142
L1I AVERAGE MISS LATENCY: 17.6966 cycles
L2C TOTAL     ACCESS:    7811294  HIT:    7236275  MISS:     575019
L2C LOAD      ACCESS:     806735  HIT:     713768  MISS:      92967
L2C RFO       ACCESS:     292603  HIT:     245083  MISS:      47520
L2C PREFETCH  ACCESS:    6075524  HIT:    5651200  MISS:     424324
L2C WRITEBACK ACCESS:     636432  HIT:     626224  MISS:      10208
L2C PREFETCH  REQUESTED:    6636228  ISSUED:    6611308  USEFUL:       5319  USELESS:     418886
L2C AVERAGE MISS LATENCY: 32.9803 cycles
LLC TOTAL     ACCESS:    2573494  HIT:    2566097  MISS:       7397
LLC LOAD      ACCESS:      92959  HIT:      92433  MISS:        526
LLC RFO       ACCESS:      47520  HIT:      47520  MISS:          0
LLC PREFETCH  ACCESS:    2340910  HIT:    2334067  MISS:       6843
LLC WRITEBACK ACCESS:      92105  HIT:      92077  MISS:         28
LLC PREFETCH  REQUESTED:          0  ISSUED:          0  USEFUL:        383  USELESS:       2748
LLC AVERAGE MISS LATENCY: 151.237 cycles
Major fault: 0 Minor fault: 1178
CPU 0 L1I EPI prefetcher final stats
CPU 0 L1D next line prefetcher final stats

DRAM Statistics
 CHANNEL 0
 RQ ROW_BUFFER_HIT:       1804  ROW_BUFFER_MISS:       5565
 DBUS_CONGESTED:        930
 WQ ROW_BUFFER_HIT:          0  ROW_BUFFER_MISS:         16  FULL:          0

 AVG_CONGESTED_CYCLE: 4

CPU 0 Branch Prediction Accuracy: 99.8762% MPKI: 0.2296 Average ROB Occupancy at Mispredict: 189.514

Branch types
NOT_BRANCH: 40726174 81.4523%
BRANCH_DIRECT_JUMP: 508374 1.01675%
BRANCH_INDIRECT: 180051 0.360102%
BRANCH_CONDITIONAL: 5999665 11.9993%
BRANCH_DIRECT_CALL: 1086739 2.17348%
BRANCH_INDIRECT_CALL: 206109 0.412218%
BRANCH_RETURN: 1292837 2.58567%
BRANCH_OTHER: 0 0%

