Initialize SIGNATURE TABLE
ST_SET: 1
ST_WAY: 256
ST_TAG_BIT: 16
ST_TAG_MASK: ffff

Initialize PATTERN TABLE
PT_SET: 512
PT_WAY: 4
SIG_DELTA_BIT: 7
C_SIG_BIT: 4
C_DELTA_BIT: 4

Initialize PREFETCH FILTER
FILTER_SET: 1024

*** ChampSim Multicore Out-of-Order Simulator ***

Warmup Instructions: 50000000
Simulation Instructions: 50000000
Number of CPUs: 1
LLC sets: 2048
LLC ways: 16
Off-chip DRAM Size: 4096 MB Channels: 1 Width: 64-bit Data Rate: 3200 MT/s

CPU 0 runs /home/sankara2004/240C/hw1/ChampSim_2/ChampSim/ipc1_public/server_009.champsimtrace.xz
LHT KB: 252.50
SCC KB: 1.56
Total KB: 254.06
CPU 0 L1D next line prefetcher
Heartbeat CPU 0 instructions: 10000003 cycles: 3205484 heartbeat IPC: 3.11965 cumulative IPC: 3.11965 (Simulation time: 0 hr 5 min 57 sec) 
Heartbeat CPU 0 instructions: 20000001 cycles: 6403445 heartbeat IPC: 3.12699 cumulative IPC: 3.12332 (Simulation time: 0 hr 11 min 41 sec) 
Heartbeat CPU 0 instructions: 30000002 cycles: 9615953 heartbeat IPC: 3.11283 cumulative IPC: 3.11982 (Simulation time: 0 hr 17 min 26 sec) 
Heartbeat CPU 0 instructions: 40000003 cycles: 12826591 heartbeat IPC: 3.11465 cumulative IPC: 3.11852 (Simulation time: 0 hr 23 min 9 sec) 
Heartbeat CPU 0 instructions: 50000000 cycles: 16091852 heartbeat IPC: 3.06254 cumulative IPC: 3.10716 (Simulation time: 0 hr 28 min 50 sec) 

Warmup complete CPU 0 instructions: 50000004 cycles: 16091853 (Simulation time: 0 hr 28 min 50 sec) 

Heartbeat CPU 0 instructions: 60000002 cycles: 31682139 heartbeat IPC: 0.641425 cumulative IPC: 0.641425 (Simulation time: 0 hr 36 min 28 sec) 
Heartbeat CPU 0 instructions: 70000003 cycles: 52671054 heartbeat IPC: 0.476442 cumulative IPC: 0.546759 (Simulation time: 0 hr 44 min 20 sec) 
Heartbeat CPU 0 instructions: 80000000 cycles: 59783034 heartbeat IPC: 1.40608 cumulative IPC: 0.686637 (Simulation time: 0 hr 52 min 8 sec) 
Heartbeat CPU 0 instructions: 90000001 cycles: 67042850 heartbeat IPC: 1.37745 cumulative IPC: 0.785068 (Simulation time: 0 hr 59 min 41 sec) 
Heartbeat CPU 0 instructions: 100000003 cycles: 74182319 heartbeat IPC: 1.40066 cumulative IPC: 0.860726 (Simulation time: 1 hr 7 min 2 sec) 
Finished CPU 0 instructions: 50000003 cycles: 58090467 cumulative IPC: 0.860726 (Simulation time: 1 hr 7 min 2 sec) 

ChampSim completed all CPUs

Region of Interest Statistics

CPU 0 cumulative IPC: 0.860726 instructions: 50000003 cycles: 58090467
L1D TOTAL     ACCESS:   21634305  HIT:   17054563  MISS:    4579742
L1D LOAD      ACCESS:    8633278  HIT:    6352682  MISS:    2280596
L1D RFO       ACCESS:    4581889  HIT:    4477316  MISS:     104573
L1D PREFETCH  ACCESS:    8419138  HIT:    6224565  MISS:    2194573
L1D WRITEBACK ACCESS:          0  HIT:          0  MISS:          0
L1D PREFETCH  REQUESTED:    8666032  ISSUED:    8569124  USEFUL:     105965  USELESS:    2088606
L1D AVERAGE MISS LATENCY: 20.3782 cycles
L1I TOTAL     ACCESS:   20528153  HIT:   18399827  MISS:    2128326
L1I LOAD      ACCESS:   10764769  HIT:   10593443  MISS:     171326
L1I RFO       ACCESS:          0  HIT:          0  MISS:          0
L1I PREFETCH  ACCESS:    9763384  HIT:    7806384  MISS:    1957000
L1I WRITEBACK ACCESS:          0  HIT:          0  MISS:          0
L1I PREFETCH  REQUESTED:   11001400  ISSUED:   11001400  USEFUL:     985578  USELESS:     971401
L1I AVERAGE MISS LATENCY: 25.266 cycles
L2C TOTAL     ACCESS:    8683004  HIT:    7634340  MISS:    1048664
L2C LOAD      ACCESS:    2299054  HIT:    2083185  MISS:     215869
L2C RFO       ACCESS:     103581  HIT:      62948  MISS:      40633
L2C PREFETCH  ACCESS:    6023494  HIT:    5233055  MISS:     790439
L2C WRITEBACK ACCESS:     256875  HIT:     255152  MISS:       1723
L2C PREFETCH  REQUESTED:    6827381  ISSUED:    6822696  USEFUL:      22183  USELESS:     767216
L2C AVERAGE MISS LATENCY: 46.5751 cycles
LLC TOTAL     ACCESS:    2376663  HIT:    2251284  MISS:     125379
LLC LOAD      ACCESS:     215641  HIT:     197971  MISS:      17670
LLC RFO       ACCESS:      40625  HIT:      32110  MISS:       8515
LLC PREFETCH  ACCESS:    1980524  HIT:    1881496  MISS:      99028
LLC WRITEBACK ACCESS:     139873  HIT:     139707  MISS:        166
LLC PREFETCH  REQUESTED:          0  ISSUED:          0  USEFUL:       8967  USELESS:      88529
LLC AVERAGE MISS LATENCY: 176.04 cycles
Major fault: 0 Minor fault: 6375
CPU 0 L1D next line prefetcher final stats

DRAM Statistics
 CHANNEL 0
 RQ ROW_BUFFER_HIT:      23301  ROW_BUFFER_MISS:     101905
 DBUS_CONGESTED:      56086
 WQ ROW_BUFFER_HIT:       8749  ROW_BUFFER_MISS:      37530  FULL:          0

 AVG_CONGESTED_CYCLE: 5

CPU 0 Branch Prediction Accuracy: 99.4713% MPKI: 1.11484 Average ROB Occupancy at Mispredict: 117.006

Branch types
NOT_BRANCH: 39456606 78.9132%
BRANCH_DIRECT_JUMP: 445350 0.8907%
BRANCH_INDIRECT: 131149 0.262298%
BRANCH_CONDITIONAL: 8130192 16.2604%
BRANCH_DIRECT_CALL: 732485 1.46497%
BRANCH_INDIRECT_CALL: 172369 0.344738%
BRANCH_RETURN: 931558 1.86312%
BRANCH_OTHER: 0 0%

