Initialize SIGNATURE TABLE
ST_SET: 1
ST_WAY: 256
ST_TAG_BIT: 16
ST_TAG_MASK: ffff

Initialize PATTERN TABLE
PT_SET: 512
PT_WAY: 4
SIG_DELTA_BIT: 7
C_SIG_BIT: 4
C_DELTA_BIT: 4

Initialize PREFETCH FILTER
FILTER_SET: 1024

*** ChampSim Multicore Out-of-Order Simulator ***

Warmup Instructions: 50000000
Simulation Instructions: 50000000
Number of CPUs: 1
LLC sets: 2048
LLC ways: 16
Off-chip DRAM Size: 4096 MB Channels: 1 Width: 64-bit Data Rate: 3200 MT/s

CPU 0 runs /home/sankara2004/240C/hw1/ChampSim_2/ChampSim/ipc1_public/server_020.champsimtrace.xz
CPU 0 EPI prefetcher
CPU 0 L1D next line prefetcher
Heartbeat CPU 0 instructions: 10000003 cycles: 3620832 heartbeat IPC: 2.7618 cumulative IPC: 2.7618 (Simulation time: 0 hr 6 min 31 sec) 
Heartbeat CPU 0 instructions: 20000002 cycles: 7245993 heartbeat IPC: 2.7585 cumulative IPC: 2.76015 (Simulation time: 0 hr 12 min 58 sec) 
Heartbeat CPU 0 instructions: 30000001 cycles: 10864856 heartbeat IPC: 2.7633 cumulative IPC: 2.7612 (Simulation time: 0 hr 19 min 29 sec) 
Heartbeat CPU 0 instructions: 40000002 cycles: 14484749 heartbeat IPC: 2.76251 cumulative IPC: 2.76153 (Simulation time: 0 hr 25 min 59 sec) 
Heartbeat CPU 0 instructions: 50000001 cycles: 18118070 heartbeat IPC: 2.7523 cumulative IPC: 2.75968 (Simulation time: 0 hr 32 min 25 sec) 

Warmup complete CPU 0 instructions: 50000001 cycles: 18118070 (Simulation time: 0 hr 32 min 25 sec) 

Heartbeat CPU 0 instructions: 60000003 cycles: 35634657 heartbeat IPC: 0.570888 cumulative IPC: 0.570888 (Simulation time: 0 hr 40 min 39 sec) 
Heartbeat CPU 0 instructions: 70000002 cycles: 53222006 heartbeat IPC: 0.56859 cumulative IPC: 0.569737 (Simulation time: 0 hr 49 min 3 sec) 
Heartbeat CPU 0 instructions: 80000002 cycles: 70641365 heartbeat IPC: 0.574074 cumulative IPC: 0.571175 (Simulation time: 0 hr 57 min 32 sec) 
Heartbeat CPU 0 instructions: 90000001 cycles: 88020908 heartbeat IPC: 0.575389 cumulative IPC: 0.572223 (Simulation time: 1 hr 5 min 48 sec) 
Heartbeat CPU 0 instructions: 100000002 cycles: 105511149 heartbeat IPC: 0.571747 cumulative IPC: 0.572128 (Simulation time: 1 hr 13 min 57 sec) 
Finished CPU 0 instructions: 50000001 cycles: 87393079 cumulative IPC: 0.572128 (Simulation time: 1 hr 13 min 57 sec) 

ChampSim completed all CPUs

Region of Interest Statistics

CPU 0 cumulative IPC: 0.572128 instructions: 50000001 cycles: 87393079
L1D TOTAL     ACCESS:   18633124  HIT:   16428862  MISS:    2204262
L1D LOAD      ACCESS:    7045221  HIT:    6323816  MISS:     721405
L1D RFO       ACCESS:    5812978  HIT:    4866988  MISS:     945990
L1D PREFETCH  ACCESS:    5774925  HIT:    5238058  MISS:     536867
L1D WRITEBACK ACCESS:          0  HIT:          0  MISS:          0
L1D PREFETCH  REQUESTED:    7086090  ISSUED:    6884431  USEFUL:     197567  USELESS:     339219
L1D AVERAGE MISS LATENCY: 175.575 cycles
L1I TOTAL     ACCESS:   33408071  HIT:   30973748  MISS:    2434323
L1I LOAD      ACCESS:   10093590  HIT:   10056253  MISS:      37337
L1I RFO       ACCESS:          0  HIT:          0  MISS:          0
L1I PREFETCH  ACCESS:   23314481  HIT:   20917495  MISS:    2396986
L1I WRITEBACK ACCESS:          0  HIT:          0  MISS:          0
L1I PREFETCH  REQUESTED:   27595057  ISSUED:   27595057  USEFUL:    2252622  USELESS:     144352
L1I AVERAGE MISS LATENCY: 19.4046 cycles
L2C TOTAL     ACCESS:    6898170  HIT:    5041829  MISS:    1856341
L2C LOAD      ACCESS:     525859  HIT:     260192  MISS:     265667
L2C RFO       ACCESS:     945505  HIT:      20095  MISS:     925410
L2C PREFETCH  ACCESS:    4263224  HIT:    3600376  MISS:     662848
L2C WRITEBACK ACCESS:    1163582  HIT:    1161166  MISS:       2416
L2C PREFETCH  REQUESTED:    3975034  ISSUED:    3970758  USEFUL:      22496  USELESS:     639210
L2C AVERAGE MISS LATENCY: 214.386 cycles
LLC TOTAL     ACCESS:    4006789  HIT:    2569783  MISS:    1437006
LLC LOAD      ACCESS:     265573  HIT:     166084  MISS:      99489
LLC RFO       ACCESS:     925397  HIT:     138324  MISS:     787073
LLC PREFETCH  ACCESS:    1718193  HIT:    1169676  MISS:     548517
LLC WRITEBACK ACCESS:    1097626  HIT:    1095699  MISS:       1927
LLC PREFETCH  REQUESTED:          0  ISSUED:          0  USEFUL:      31393  USELESS:     517651
LLC AVERAGE MISS LATENCY: 279.499 cycles
Major fault: 0 Minor fault: 22092
CPU 0 L1I EPI prefetcher final stats
CPU 0 L1D next line prefetcher final stats

DRAM Statistics
 CHANNEL 0
 RQ ROW_BUFFER_HIT:     403355  ROW_BUFFER_MISS:    1031444
 DBUS_CONGESTED:    1434491
 WQ ROW_BUFFER_HIT:     261265  ROW_BUFFER_MISS:     627033  FULL:          0

 AVG_CONGESTED_CYCLE: 6

CPU 0 Branch Prediction Accuracy: 99.712% MPKI: 0.47638 Average ROB Occupancy at Mispredict: 215.433

Branch types
NOT_BRANCH: 41729610 83.4592%
BRANCH_DIRECT_JUMP: 458221 0.916442%
BRANCH_INDIRECT: 49088 0.098176%
BRANCH_CONDITIONAL: 5938541 11.8771%
BRANCH_DIRECT_CALL: 745133 1.49027%
BRANCH_INDIRECT_CALL: 167110 0.33422%
BRANCH_RETURN: 912224 1.82445%
BRANCH_OTHER: 0 0%

