Initialize SIGNATURE TABLE
ST_SET: 1
ST_WAY: 256
ST_TAG_BIT: 16
ST_TAG_MASK: ffff

Initialize PATTERN TABLE
PT_SET: 512
PT_WAY: 4
SIG_DELTA_BIT: 7
C_SIG_BIT: 4
C_DELTA_BIT: 4

Initialize PREFETCH FILTER
FILTER_SET: 1024

*** ChampSim Multicore Out-of-Order Simulator ***

Warmup Instructions: 50000000
Simulation Instructions: 50000000
Number of CPUs: 1
LLC sets: 2048
LLC ways: 16
Off-chip DRAM Size: 4096 MB Channels: 1 Width: 64-bit Data Rate: 3200 MT/s

CPU 0 runs /home/sankara2004/240C/hw1/ChampSim_2/ChampSim/ipc1_public/server_014.champsimtrace.xz
CPU 0 EPI prefetcher
CPU 0 L1D next line prefetcher
Heartbeat CPU 0 instructions: 10000003 cycles: 3519529 heartbeat IPC: 2.84129 cumulative IPC: 2.84129 (Simulation time: 0 hr 6 min 32 sec) 
Heartbeat CPU 0 instructions: 20000000 cycles: 7106391 heartbeat IPC: 2.78795 cumulative IPC: 2.81437 (Simulation time: 0 hr 12 min 57 sec) 
Heartbeat CPU 0 instructions: 30000001 cycles: 10647908 heartbeat IPC: 2.82365 cumulative IPC: 2.81746 (Simulation time: 0 hr 19 min 27 sec) 
Heartbeat CPU 0 instructions: 40000003 cycles: 14196130 heartbeat IPC: 2.81831 cumulative IPC: 2.81767 (Simulation time: 0 hr 25 min 55 sec) 
Heartbeat CPU 0 instructions: 50000000 cycles: 17744804 heartbeat IPC: 2.81795 cumulative IPC: 2.81773 (Simulation time: 0 hr 32 min 21 sec) 

Warmup complete CPU 0 instructions: 50000001 cycles: 17744805 (Simulation time: 0 hr 32 min 21 sec) 

Heartbeat CPU 0 instructions: 60000000 cycles: 24034539 heartbeat IPC: 1.58989 cumulative IPC: 1.58989 (Simulation time: 0 hr 40 min 39 sec) 
Heartbeat CPU 0 instructions: 70000003 cycles: 30327211 heartbeat IPC: 1.58915 cumulative IPC: 1.58952 (Simulation time: 0 hr 49 min 5 sec) 
*** Reached end of trace for Core: 0 Repeating trace: /home/sankara2004/240C/hw1/ChampSim_2/ChampSim/ipc1_public/server_014.champsimtrace.xz
Heartbeat CPU 0 instructions: 80000001 cycles: 36894171 heartbeat IPC: 1.52277 cumulative IPC: 1.56663 (Simulation time: 0 hr 57 min 36 sec) 
Heartbeat CPU 0 instructions: 90000003 cycles: 44398172 heartbeat IPC: 1.33262 cumulative IPC: 1.50075 (Simulation time: 1 hr 5 min 52 sec) 
Heartbeat CPU 0 instructions: 100000001 cycles: 50883053 heartbeat IPC: 1.54205 cumulative IPC: 1.50883 (Simulation time: 1 hr 14 min 1 sec) 
Finished CPU 0 instructions: 50000000 cycles: 33138248 cumulative IPC: 1.50883 (Simulation time: 1 hr 14 min 1 sec) 

ChampSim completed all CPUs

Region of Interest Statistics

CPU 0 cumulative IPC: 1.50883 instructions: 50000000 cycles: 33138248
L1D TOTAL     ACCESS:   21632311  HIT:   21561460  MISS:      70851
L1D LOAD      ACCESS:    6676231  HIT:    6649270  MISS:      26961
L1D RFO       ACCESS:    8412842  HIT:    8380775  MISS:      32067
L1D PREFETCH  ACCESS:    6543238  HIT:    6531415  MISS:      11823
L1D WRITEBACK ACCESS:          0  HIT:          0  MISS:          0
L1D PREFETCH  REQUESTED:    6680675  ISSUED:    6571064  USEFUL:       3275  USELESS:       8549
L1D AVERAGE MISS LATENCY: 232.524 cycles
L1I TOTAL     ACCESS:   44801393  HIT:   42675960  MISS:    2125433
L1I LOAD      ACCESS:    9743849  HIT:    9702329  MISS:      41520
L1I RFO       ACCESS:          0  HIT:          0  MISS:          0
L1I PREFETCH  ACCESS:   35057544  HIT:   32973631  MISS:    2083913
L1I WRITEBACK ACCESS:          0  HIT:          0  MISS:          0
L1I PREFETCH  REQUESTED:   44132705  ISSUED:   44132705  USEFUL:    1703837  USELESS:     380111
L1I AVERAGE MISS LATENCY: 14.9949 cycles
L2C TOTAL     ACCESS:    3068644  HIT:    2996276  MISS:      72368
L2C LOAD      ACCESS:      47600  HIT:      29244  MISS:      18356
L2C RFO       ACCESS:      32013  HIT:       1087  MISS:      30926
L2C PREFETCH  ACCESS:    2950665  HIT:    2927609  MISS:      23056
L2C WRITEBACK ACCESS:      38366  HIT:      38336  MISS:         30
L2C PREFETCH  REQUESTED:    1915404  ISSUED:    1915330  USEFUL:       1335  USELESS:      21211
L2C AVERAGE MISS LATENCY: 261.503 cycles
LLC TOTAL     ACCESS:     486382  HIT:     420594  MISS:      65788
LLC LOAD      ACCESS:      17210  HIT:       4826  MISS:      12384
LLC RFO       ACCESS:      30926  HIT:       4224  MISS:      26702
LLC PREFETCH  ACCESS:     403462  HIT:     376876  MISS:      26586
LLC WRITEBACK ACCESS:      34784  HIT:      34668  MISS:        116
LLC PREFETCH  REQUESTED:          0  ISSUED:          0  USEFUL:       3971  USELESS:      23202
LLC AVERAGE MISS LATENCY: 312.433 cycles
Major fault: 0 Minor fault: 1911
CPU 0 L1I EPI prefetcher final stats
CPU 0 L1D next line prefetcher final stats

DRAM Statistics
 CHANNEL 0
 RQ ROW_BUFFER_HIT:      28832  ROW_BUFFER_MISS:      36835
 DBUS_CONGESTED:      67133
 WQ ROW_BUFFER_HIT:       8078  ROW_BUFFER_MISS:      24133  FULL:          0

 AVG_CONGESTED_CYCLE: 6

CPU 0 Branch Prediction Accuracy: 99.7719% MPKI: 0.38824 Average ROB Occupancy at Mispredict: 155.457

Branch types
NOT_BRANCH: 41489017 82.978%
BRANCH_DIRECT_JUMP: 449417 0.898834%
BRANCH_INDIRECT: 2330 0.00466%
BRANCH_CONDITIONAL: 5470016 10.94%
BRANCH_DIRECT_CALL: 1172187 2.34437%
BRANCH_INDIRECT_CALL: 122383 0.244766%
BRANCH_RETURN: 1294554 2.58911%
BRANCH_OTHER: 0 0%

