Initialize SIGNATURE TABLE
ST_SET: 1
ST_WAY: 256
ST_TAG_BIT: 16
ST_TAG_MASK: ffff

Initialize PATTERN TABLE
PT_SET: 512
PT_WAY: 4
SIG_DELTA_BIT: 7
C_SIG_BIT: 4
C_DELTA_BIT: 4

Initialize PREFETCH FILTER
FILTER_SET: 1024

*** ChampSim Multicore Out-of-Order Simulator ***

Warmup Instructions: 50000000
Simulation Instructions: 50000000
Number of CPUs: 1
LLC sets: 2048
LLC ways: 16
Off-chip DRAM Size: 4096 MB Channels: 1 Width: 64-bit Data Rate: 3200 MT/s

CPU 0 runs /home/sankara2004/240C/hw1/ChampSim_2/ChampSim/ipc1_public/server_004.champsimtrace.xz
LHT KB: 31.56
SCC KB: 1.56
Total KB: 33.12
CPU 0 L1D next line prefetcher
Heartbeat CPU 0 instructions: 10000002 cycles: 3235589 heartbeat IPC: 3.09063 cumulative IPC: 3.09063 (Simulation time: 0 hr 5 min 49 sec) 
Heartbeat CPU 0 instructions: 20000002 cycles: 6575831 heartbeat IPC: 2.9938 cumulative IPC: 3.04144 (Simulation time: 0 hr 11 min 34 sec) 
Heartbeat CPU 0 instructions: 30000000 cycles: 11693746 heartbeat IPC: 1.95392 cumulative IPC: 2.56547 (Simulation time: 0 hr 17 min 24 sec) 
Heartbeat CPU 0 instructions: 40000003 cycles: 15446210 heartbeat IPC: 2.66492 cumulative IPC: 2.58963 (Simulation time: 0 hr 23 min 8 sec) 
Heartbeat CPU 0 instructions: 50000003 cycles: 18681361 heartbeat IPC: 3.09105 cumulative IPC: 2.67646 (Simulation time: 0 hr 28 min 48 sec) 

Warmup complete CPU 0 instructions: 50000003 cycles: 18681361 (Simulation time: 0 hr 28 min 48 sec) 

Heartbeat CPU 0 instructions: 60000002 cycles: 28536522 heartbeat IPC: 1.0147 cumulative IPC: 1.0147 (Simulation time: 0 hr 36 min 16 sec) 
Heartbeat CPU 0 instructions: 70000000 cycles: 37903731 heartbeat IPC: 1.06755 cumulative IPC: 1.04045 (Simulation time: 0 hr 43 min 59 sec) 
Heartbeat CPU 0 instructions: 80000001 cycles: 59268180 heartbeat IPC: 0.468067 cumulative IPC: 0.739156 (Simulation time: 0 hr 51 min 54 sec) 
Heartbeat CPU 0 instructions: 90000003 cycles: 74247870 heartbeat IPC: 0.667571 cumulative IPC: 0.719858 (Simulation time: 0 hr 59 min 33 sec) 
Heartbeat CPU 0 instructions: 100000003 cycles: 84177418 heartbeat IPC: 1.0071 cumulative IPC: 0.763405 (Simulation time: 1 hr 6 min 54 sec) 
Finished CPU 0 instructions: 50000000 cycles: 65496057 cumulative IPC: 0.763405 (Simulation time: 1 hr 6 min 54 sec) 

ChampSim completed all CPUs

Region of Interest Statistics

CPU 0 cumulative IPC: 0.763405 instructions: 50000000 cycles: 65496057
L1D TOTAL     ACCESS:   21825798  HIT:   17754578  MISS:    4071220
L1D LOAD      ACCESS:    8693745  HIT:    6676646  MISS:    2017099
L1D RFO       ACCESS:    4648319  HIT:    4541308  MISS:     107011
L1D PREFETCH  ACCESS:    8483734  HIT:    6536624  MISS:    1947110
L1D WRITEBACK ACCESS:          0  HIT:          0  MISS:          0
L1D PREFETCH  REQUESTED:    8731314  ISSUED:    8640953  USEFUL:     107366  USELESS:    1839735
L1D AVERAGE MISS LATENCY: 24.0579 cycles
L1I TOTAL     ACCESS:   20099183  HIT:   18147754  MISS:    1951429
L1I LOAD      ACCESS:   10657033  HIT:   10216245  MISS:     440788
L1I RFO       ACCESS:          0  HIT:          0  MISS:          0
L1I PREFETCH  ACCESS:    9442150  HIT:    7931509  MISS:    1510641
L1I WRITEBACK ACCESS:          0  HIT:          0  MISS:          0
L1I PREFETCH  REQUESTED:   16186784  ISSUED:   16186784  USEFUL:     705230  USELESS:     805292
L1I AVERAGE MISS LATENCY: 32.2349 cycles
L2C TOTAL     ACCESS:    7871907  HIT:    6488215  MISS:    1383692
L2C LOAD      ACCESS:    2092872  HIT:    1812880  MISS:     279992
L2C RFO       ACCESS:     105643  HIT:      54215  MISS:      51428
L2C PREFETCH  ACCESS:    5428360  HIT:    4378764  MISS:    1049596
L2C WRITEBACK ACCESS:     245032  HIT:     242356  MISS:       2676
L2C PREFETCH  REQUESTED:    6737693  ISSUED:    6735811  USEFUL:      33707  USELESS:    1015042
L2C AVERAGE MISS LATENCY: 63.4275 cycles
LLC TOTAL     ACCESS:    2542024  HIT:    2211727  MISS:     330297
LLC LOAD      ACCESS:     279478  HIT:     228094  MISS:      51384
LLC RFO       ACCESS:      51423  HIT:      33424  MISS:      17999
LLC PREFETCH  ACCESS:    2059722  HIT:    1799061  MISS:     260661
LLC WRITEBACK ACCESS:     151401  HIT:     151148  MISS:        253
LLC PREFETCH  REQUESTED:          0  ISSUED:          0  USEFUL:      15874  USELESS:     242826
LLC AVERAGE MISS LATENCY: 172.413 cycles
Major fault: 0 Minor fault: 7617
CPU 0 L1D next line prefetcher final stats

DRAM Statistics
 CHANNEL 0
 RQ ROW_BUFFER_HIT:      76101  ROW_BUFFER_MISS:     253901
 DBUS_CONGESTED:     143588
 WQ ROW_BUFFER_HIT:      12708  ROW_BUFFER_MISS:      47003  FULL:          0

 AVG_CONGESTED_CYCLE: 5

CPU 0 Branch Prediction Accuracy: 98.1603% MPKI: 3.89124 Average ROB Occupancy at Mispredict: 61.6669

Branch types
NOT_BRANCH: 39423766 78.8475%
BRANCH_DIRECT_JUMP: 551642 1.10328%
BRANCH_INDIRECT: 139368 0.278736%
BRANCH_CONDITIONAL: 7920861 15.8417%
BRANCH_DIRECT_CALL: 776072 1.55214%
BRANCH_INDIRECT_CALL: 194644 0.389288%
BRANCH_RETURN: 993311 1.98662%
BRANCH_OTHER: 0 0%

