Initialize SIGNATURE TABLE
ST_SET: 1
ST_WAY: 256
ST_TAG_BIT: 16
ST_TAG_MASK: ffff

Initialize PATTERN TABLE
PT_SET: 512
PT_WAY: 4
SIG_DELTA_BIT: 7
C_SIG_BIT: 4
C_DELTA_BIT: 4

Initialize PREFETCH FILTER
FILTER_SET: 1024

*** ChampSim Multicore Out-of-Order Simulator ***

Warmup Instructions: 50000000
Simulation Instructions: 50000000
Number of CPUs: 1
LLC sets: 2048
LLC ways: 16
Off-chip DRAM Size: 4096 MB Channels: 1 Width: 64-bit Data Rate: 3200 MT/s

CPU 0 runs /home/sankara2004/240C/hw1/ChampSim_2/ChampSim/ipc1_public/server_036.champsimtrace.xz
LHT KB: 126.25
SCC KB: 1.56
Total KB: 127.81
CPU 0 L1D next line prefetcher
Heartbeat CPU 0 instructions: 10000000 cycles: 3459069 heartbeat IPC: 2.89095 cumulative IPC: 2.89095 (Simulation time: 0 hr 5 min 54 sec) 
Heartbeat CPU 0 instructions: 20000000 cycles: 6924870 heartbeat IPC: 2.88534 cumulative IPC: 2.88814 (Simulation time: 0 hr 11 min 40 sec) 
Heartbeat CPU 0 instructions: 30000003 cycles: 10433497 heartbeat IPC: 2.85012 cumulative IPC: 2.87535 (Simulation time: 0 hr 17 min 29 sec) 
Heartbeat CPU 0 instructions: 40000000 cycles: 13896007 heartbeat IPC: 2.88808 cumulative IPC: 2.87852 (Simulation time: 0 hr 23 min 17 sec) 
Heartbeat CPU 0 instructions: 50000002 cycles: 17357718 heartbeat IPC: 2.88875 cumulative IPC: 2.88056 (Simulation time: 0 hr 29 min 0 sec) 

Warmup complete CPU 0 instructions: 50000002 cycles: 17357718 (Simulation time: 0 hr 29 min 0 sec) 

Heartbeat CPU 0 instructions: 60000002 cycles: 23040496 heartbeat IPC: 1.7597 cumulative IPC: 1.7597 (Simulation time: 0 hr 36 min 36 sec) 
Heartbeat CPU 0 instructions: 70000001 cycles: 28687691 heartbeat IPC: 1.77079 cumulative IPC: 1.76523 (Simulation time: 0 hr 44 min 23 sec) 
Heartbeat CPU 0 instructions: 80000001 cycles: 34353507 heartbeat IPC: 1.76497 cumulative IPC: 1.76514 (Simulation time: 0 hr 52 min 12 sec) 
Heartbeat CPU 0 instructions: 90000002 cycles: 39999875 heartbeat IPC: 1.77105 cumulative IPC: 1.76662 (Simulation time: 0 hr 59 min 48 sec) 
Heartbeat CPU 0 instructions: 100000001 cycles: 45643514 heartbeat IPC: 1.77191 cumulative IPC: 1.76767 (Simulation time: 1 hr 7 min 20 sec) 
Finished CPU 0 instructions: 50000003 cycles: 28285797 cumulative IPC: 1.76767 (Simulation time: 1 hr 7 min 20 sec) 

ChampSim completed all CPUs

Region of Interest Statistics

CPU 0 cumulative IPC: 1.76767 instructions: 50000003 cycles: 28285797
L1D TOTAL     ACCESS:   20766396  HIT:   20706471  MISS:      59925
L1D LOAD      ACCESS:    6807939  HIT:    6773250  MISS:      34689
L1D RFO       ACCESS:    7347663  HIT:    7340464  MISS:       7199
L1D PREFETCH  ACCESS:    6610794  HIT:    6592757  MISS:      18037
L1D WRITEBACK ACCESS:          0  HIT:          0  MISS:          0
L1D PREFETCH  REQUESTED:    6808885  ISSUED:    6644567  USEFUL:       5457  USELESS:      12581
L1D AVERAGE MISS LATENCY: 17.9149 cycles
L1I TOTAL     ACCESS:   24916370  HIT:   20304706  MISS:    4611664
L1I LOAD      ACCESS:    8897282  HIT:    8521246  MISS:     376036
L1I RFO       ACCESS:          0  HIT:          0  MISS:          0
L1I PREFETCH  ACCESS:   16019088  HIT:   11783460  MISS:    4235628
L1I WRITEBACK ACCESS:          0  HIT:          0  MISS:          0
L1I PREFETCH  REQUESTED:   18011463  ISSUED:   18011463  USEFUL:    3402116  USELESS:     833503
L1I AVERAGE MISS LATENCY: 13.3935 cycles
L2C TOTAL     ACCESS:    5884044  HIT:    5881798  MISS:       2246
L2C LOAD      ACCESS:     105738  HIT:     105423  MISS:        315
L2C RFO       ACCESS:       7191  HIT:       7140  MISS:         51
L2C PREFETCH  ACCESS:    5755514  HIT:    5753644  MISS:       1870
L2C WRITEBACK ACCESS:      15601  HIT:      15591  MISS:         10
L2C PREFETCH  REQUESTED:    2769396  ISSUED:    2769391  USEFUL:        151  USELESS:       1140
L2C AVERAGE MISS LATENCY: 144.822 cycles
LLC TOTAL     ACCESS:     516004  HIT:     513161  MISS:       2843
LLC LOAD      ACCESS:        315  HIT:         99  MISS:        216
LLC RFO       ACCESS:         51  HIT:         13  MISS:         38
LLC PREFETCH  ACCESS:     514732  HIT:     512148  MISS:       2584
LLC WRITEBACK ACCESS:        906  HIT:        901  MISS:          5
LLC PREFETCH  REQUESTED:          0  ISSUED:          0  USEFUL:         29  USELESS:        695
LLC AVERAGE MISS LATENCY: 231.436 cycles
Major fault: 0 Minor fault: 1937
CPU 0 L1D next line prefetcher final stats

DRAM Statistics
 CHANNEL 0
 RQ ROW_BUFFER_HIT:        364  ROW_BUFFER_MISS:       2474
 DBUS_CONGESTED:       1215
 WQ ROW_BUFFER_HIT:        296  ROW_BUFFER_MISS:       1744  FULL:          0

 AVG_CONGESTED_CYCLE: 6

CPU 0 Branch Prediction Accuracy: 99.8717% MPKI: 0.21174 Average ROB Occupancy at Mispredict: 213.717

Branch types
NOT_BRANCH: 41748435 83.4969%
BRANCH_DIRECT_JUMP: 468564 0.937128%
BRANCH_INDIRECT: 0 0%
BRANCH_CONDITIONAL: 5599754 11.1995%
BRANCH_DIRECT_CALL: 885105 1.77021%
BRANCH_INDIRECT_CALL: 206338 0.412676%
BRANCH_RETURN: 1091467 2.18293%
BRANCH_OTHER: 0 0%

