Initialize SIGNATURE TABLE
ST_SET: 1
ST_WAY: 256
ST_TAG_BIT: 16
ST_TAG_MASK: ffff

Initialize PATTERN TABLE
PT_SET: 512
PT_WAY: 4
SIG_DELTA_BIT: 7
C_SIG_BIT: 4
C_DELTA_BIT: 4

Initialize PREFETCH FILTER
FILTER_SET: 1024

*** ChampSim Multicore Out-of-Order Simulator ***

Warmup Instructions: 50000000
Simulation Instructions: 50000000
Number of CPUs: 1
LLC sets: 2048
LLC ways: 16
Off-chip DRAM Size: 4096 MB Channels: 1 Width: 64-bit Data Rate: 3200 MT/s

CPU 0 runs /home/sankara2004/240C/hw1/ChampSim_2/ChampSim/ipc1_public/server_014.champsimtrace.xz
LHT KB: 126.25
SCC KB: 1.56
Total KB: 127.81
CPU 0 L1D next line prefetcher
Heartbeat CPU 0 instructions: 10000003 cycles: 3519562 heartbeat IPC: 2.84126 cumulative IPC: 2.84126 (Simulation time: 0 hr 5 min 44 sec) 
Heartbeat CPU 0 instructions: 20000000 cycles: 7106325 heartbeat IPC: 2.78803 cumulative IPC: 2.81439 (Simulation time: 0 hr 11 min 19 sec) 
Heartbeat CPU 0 instructions: 30000001 cycles: 10647872 heartbeat IPC: 2.82363 cumulative IPC: 2.81746 (Simulation time: 0 hr 16 min 58 sec) 
Heartbeat CPU 0 instructions: 40000003 cycles: 14196094 heartbeat IPC: 2.81831 cumulative IPC: 2.81768 (Simulation time: 0 hr 22 min 34 sec) 
Heartbeat CPU 0 instructions: 50000000 cycles: 17744768 heartbeat IPC: 2.81795 cumulative IPC: 2.81773 (Simulation time: 0 hr 28 min 6 sec) 

Warmup complete CPU 0 instructions: 50000001 cycles: 17744769 (Simulation time: 0 hr 28 min 6 sec) 

Heartbeat CPU 0 instructions: 60000000 cycles: 24069948 heartbeat IPC: 1.58098 cumulative IPC: 1.58098 (Simulation time: 0 hr 35 min 26 sec) 
Heartbeat CPU 0 instructions: 70000003 cycles: 30395893 heartbeat IPC: 1.58079 cumulative IPC: 1.58089 (Simulation time: 0 hr 42 min 55 sec) 
*** Reached end of trace for Core: 0 Repeating trace: /home/sankara2004/240C/hw1/ChampSim_2/ChampSim/ipc1_public/server_014.champsimtrace.xz
Heartbeat CPU 0 instructions: 80000001 cycles: 36986314 heartbeat IPC: 1.51735 cumulative IPC: 1.55913 (Simulation time: 0 hr 50 min 32 sec) 
Heartbeat CPU 0 instructions: 90000003 cycles: 44535094 heartbeat IPC: 1.32472 cumulative IPC: 1.49308 (Simulation time: 0 hr 57 min 53 sec) 
Heartbeat CPU 0 instructions: 100000001 cycles: 51049578 heartbeat IPC: 1.53504 cumulative IPC: 1.50128 (Simulation time: 1 hr 5 min 9 sec) 
Finished CPU 0 instructions: 50000000 cycles: 33304809 cumulative IPC: 1.50128 (Simulation time: 1 hr 5 min 9 sec) 

ChampSim completed all CPUs

Region of Interest Statistics

CPU 0 cumulative IPC: 1.50128 instructions: 50000000 cycles: 33304809
L1D TOTAL     ACCESS:   21687891  HIT:   21617026  MISS:      70865
L1D LOAD      ACCESS:    6702627  HIT:    6675655  MISS:      26972
L1D RFO       ACCESS:    8413364  HIT:    8381296  MISS:      32068
L1D PREFETCH  ACCESS:    6571900  HIT:    6560075  MISS:      11825
L1D WRITEBACK ACCESS:          0  HIT:          0  MISS:          0
L1D PREFETCH  REQUESTED:    6707175  ISSUED:    6599741  USEFUL:       3268  USELESS:       8557
L1D AVERAGE MISS LATENCY: 226.874 cycles
L1I TOTAL     ACCESS:   22046325  HIT:   20481561  MISS:    1564764
L1I LOAD      ACCESS:    9580115  HIT:    9144037  MISS:     436078
L1I RFO       ACCESS:          0  HIT:          0  MISS:          0
L1I PREFETCH  ACCESS:   12466210  HIT:   11337524  MISS:    1128686
L1I WRITEBACK ACCESS:          0  HIT:          0  MISS:          0
L1I PREFETCH  REQUESTED:   14577806  ISSUED:   14577806  USEFUL:    1010965  USELESS:     117725
L1I AVERAGE MISS LATENCY: 11.4065 cycles
L2C TOTAL     ACCESS:    2085764  HIT:    2012595  MISS:      73169
L2C LOAD      ACCESS:      40785  HIT:      23087  MISS:      17698
L2C RFO       ACCESS:      32013  HIT:       1051  MISS:      30962
L2C PREFETCH  ACCESS:    1974598  HIT:    1950117  MISS:      24481
L2C WRITEBACK ACCESS:      38368  HIT:      38340  MISS:         28
L2C PREFETCH  REQUESTED:     890051  ISSUED:     890041  USEFUL:       1148  USELESS:      23132
L2C AVERAGE MISS LATENCY: 254.446 cycles
LLC TOTAL     ACCESS:     322127  HIT:     257722  MISS:      64405
LLC LOAD      ACCESS:      16601  HIT:       4220  MISS:      12381
LLC RFO       ACCESS:      30962  HIT:       4899  MISS:      26063
LLC PREFETCH  ACCESS:     239563  HIT:     213690  MISS:      25873
LLC WRITEBACK ACCESS:      35001  HIT:      34913  MISS:         88
LLC PREFETCH  REQUESTED:          0  ISSUED:          0  USEFUL:       3456  USELESS:      24392
LLC AVERAGE MISS LATENCY: 307.201 cycles
Major fault: 0 Minor fault: 1921
CPU 0 L1D next line prefetcher final stats

DRAM Statistics
 CHANNEL 0
 RQ ROW_BUFFER_HIT:      28170  ROW_BUFFER_MISS:      36145
 DBUS_CONGESTED:      64821
 WQ ROW_BUFFER_HIT:       8179  ROW_BUFFER_MISS:      23802  FULL:          0

 AVG_CONGESTED_CYCLE: 6

CPU 0 Branch Prediction Accuracy: 99.7719% MPKI: 0.38824 Average ROB Occupancy at Mispredict: 142.164

Branch types
NOT_BRANCH: 41488875 82.9778%
BRANCH_DIRECT_JUMP: 449416 0.898832%
BRANCH_INDIRECT: 2330 0.00466%
BRANCH_CONDITIONAL: 5470009 10.94%
BRANCH_DIRECT_CALL: 1172181 2.34436%
BRANCH_INDIRECT_CALL: 122383 0.244766%
BRANCH_RETURN: 1294546 2.58909%
BRANCH_OTHER: 0 0%

