Initialize SIGNATURE TABLE
ST_SET: 1
ST_WAY: 256
ST_TAG_BIT: 16
ST_TAG_MASK: ffff

Initialize PATTERN TABLE
PT_SET: 512
PT_WAY: 4
SIG_DELTA_BIT: 7
C_SIG_BIT: 4
C_DELTA_BIT: 4

Initialize PREFETCH FILTER
FILTER_SET: 1024

*** ChampSim Multicore Out-of-Order Simulator ***

Warmup Instructions: 50000000
Simulation Instructions: 50000000
Number of CPUs: 1
LLC sets: 2048
LLC ways: 16
Off-chip DRAM Size: 4096 MB Channels: 1 Width: 64-bit Data Rate: 3200 MT/s

CPU 0 runs /home/sankara2004/240C/hw1/ChampSim_2/ChampSim/ipc1_public/server_027.champsimtrace.xz
LHT KB: 126.25
SCC KB: 1.56
Total KB: 127.81
CPU 0 L1D next line prefetcher
Heartbeat CPU 0 instructions: 10000001 cycles: 3529209 heartbeat IPC: 2.8335 cumulative IPC: 2.8335 (Simulation time: 0 hr 5 min 54 sec) 
Heartbeat CPU 0 instructions: 20000001 cycles: 7062636 heartbeat IPC: 2.83011 cumulative IPC: 2.8318 (Simulation time: 0 hr 11 min 43 sec) 
Heartbeat CPU 0 instructions: 30000002 cycles: 10591066 heartbeat IPC: 2.83412 cumulative IPC: 2.83258 (Simulation time: 0 hr 17 min 35 sec) 
Heartbeat CPU 0 instructions: 40000000 cycles: 14125125 heartbeat IPC: 2.82961 cumulative IPC: 2.83183 (Simulation time: 0 hr 23 min 22 sec) 
Heartbeat CPU 0 instructions: 50000001 cycles: 17652741 heartbeat IPC: 2.83478 cumulative IPC: 2.83242 (Simulation time: 0 hr 29 min 7 sec) 

Warmup complete CPU 0 instructions: 50000001 cycles: 17652741 (Simulation time: 0 hr 29 min 7 sec) 

Heartbeat CPU 0 instructions: 60000002 cycles: 24623575 heartbeat IPC: 1.43455 cumulative IPC: 1.43455 (Simulation time: 0 hr 36 min 44 sec) 
Heartbeat CPU 0 instructions: 70000003 cycles: 31551021 heartbeat IPC: 1.44353 cumulative IPC: 1.43903 (Simulation time: 0 hr 44 min 29 sec) 
Heartbeat CPU 0 instructions: 80000002 cycles: 38487804 heartbeat IPC: 1.44159 cumulative IPC: 1.43988 (Simulation time: 0 hr 52 min 23 sec) 
Heartbeat CPU 0 instructions: 90000001 cycles: 45499264 heartbeat IPC: 1.42624 cumulative IPC: 1.43644 (Simulation time: 1 hr 0 min 2 sec) 
Heartbeat CPU 0 instructions: 100000002 cycles: 52405473 heartbeat IPC: 1.44797 cumulative IPC: 1.43874 (Simulation time: 1 hr 7 min 23 sec) 
Finished CPU 0 instructions: 50000001 cycles: 34752732 cumulative IPC: 1.43874 (Simulation time: 1 hr 7 min 23 sec) 

ChampSim completed all CPUs

Region of Interest Statistics

CPU 0 cumulative IPC: 1.43874 instructions: 50000001 cycles: 34752732
L1D TOTAL     ACCESS:   20035054  HIT:   18433237  MISS:    1601817
L1D LOAD      ACCESS:    7015696  HIT:    6324772  MISS:     690924
L1D RFO       ACCESS:    6292253  HIT:    6007108  MISS:     285145
L1D PREFETCH  ACCESS:    6727105  HIT:    6101357  MISS:     625748
L1D WRITEBACK ACCESS:          0  HIT:          0  MISS:          0
L1D PREFETCH  REQUESTED:    7060284  ISSUED:    6935697  USEFUL:     150684  USELESS:     475076
L1D AVERAGE MISS LATENCY: 24.1752 cycles
L1I TOTAL     ACCESS:   24204191  HIT:   19029786  MISS:    5174405
L1I LOAD      ACCESS:    9352690  HIT:    8821732  MISS:     530958
L1I RFO       ACCESS:          0  HIT:          0  MISS:          0
L1I PREFETCH  ACCESS:   14851501  HIT:   10208054  MISS:    4643447
L1I WRITEBACK ACCESS:          0  HIT:          0  MISS:          0
L1I PREFETCH  REQUESTED:   17335615  ISSUED:   17335615  USEFUL:    2427598  USELESS:    2215804
L1I AVERAGE MISS LATENCY: 15.3718 cycles
L2C TOTAL     ACCESS:    9187388  HIT:    8406644  MISS:     780744
L2C LOAD      ACCESS:     742272  HIT:     603107  MISS:     139165
L2C RFO       ACCESS:     283453  HIT:     190540  MISS:      92913
L2C PREFETCH  ACCESS:    7602533  HIT:    7058950  MISS:     543583
L2C WRITEBACK ACCESS:     559130  HIT:     554047  MISS:       5083
L2C PREFETCH  REQUESTED:    5160000  ISSUED:    5153081  USEFUL:      18504  USELESS:     524125
L2C AVERAGE MISS LATENCY: 37.432 cycles
LLC TOTAL     ACCESS:    2309190  HIT:    2277627  MISS:      31563
LLC LOAD      ACCESS:     139014  HIT:     135881  MISS:       3133
LLC RFO       ACCESS:      92890  HIT:      78955  MISS:      13935
LLC PREFETCH  ACCESS:    1918393  HIT:    1904060  MISS:      14333
LLC WRITEBACK ACCESS:     158893  HIT:     158731  MISS:        162
LLC PREFETCH  REQUESTED:          0  ISSUED:          0  USEFUL:       1040  USELESS:      13327
LLC AVERAGE MISS LATENCY: 187.518 cycles
Major fault: 0 Minor fault: 2493
CPU 0 L1D next line prefetcher final stats

DRAM Statistics
 CHANNEL 0
 RQ ROW_BUFFER_HIT:      10817  ROW_BUFFER_MISS:      20583
 DBUS_CONGESTED:      22240
 WQ ROW_BUFFER_HIT:       1435  ROW_BUFFER_MISS:      14214  FULL:          0

 AVG_CONGESTED_CYCLE: 6

CPU 0 Branch Prediction Accuracy: 99.8082% MPKI: 0.35064 Average ROB Occupancy at Mispredict: 175.002

Branch types
NOT_BRANCH: 40857504 81.715%
BRANCH_DIRECT_JUMP: 526635 1.05327%
BRANCH_INDIRECT: 205902 0.411804%
BRANCH_CONDITIONAL: 6184049 12.3681%
BRANCH_DIRECT_CALL: 938468 1.87694%
BRANCH_INDIRECT_CALL: 174486 0.348972%
BRANCH_RETURN: 1112959 2.22592%
BRANCH_OTHER: 0 0%

