Initialize SIGNATURE TABLE
ST_SET: 1
ST_WAY: 256
ST_TAG_BIT: 16
ST_TAG_MASK: ffff

Initialize PATTERN TABLE
PT_SET: 512
PT_WAY: 4
SIG_DELTA_BIT: 7
C_SIG_BIT: 4
C_DELTA_BIT: 4

Initialize PREFETCH FILTER
FILTER_SET: 1024

*** ChampSim Multicore Out-of-Order Simulator ***

Warmup Instructions: 50000000
Simulation Instructions: 50000000
Number of CPUs: 1
LLC sets: 2048
LLC ways: 16
Off-chip DRAM Size: 4096 MB Channels: 1 Width: 64-bit Data Rate: 3200 MT/s

CPU 0 runs /home/sankara2004/240C/hw1/ChampSim_2/ChampSim/ipc1_public/server_004.champsimtrace.xz
CPU 0 EPI prefetcher
CPU 0 L1D next line prefetcher
Heartbeat CPU 0 instructions: 10000002 cycles: 3230686 heartbeat IPC: 3.09532 cumulative IPC: 3.09532 (Simulation time: 0 hr 6 min 22 sec) 
Heartbeat CPU 0 instructions: 20000002 cycles: 6567377 heartbeat IPC: 2.99698 cumulative IPC: 3.04536 (Simulation time: 0 hr 12 min 54 sec) 
Heartbeat CPU 0 instructions: 30000000 cycles: 11684580 heartbeat IPC: 1.95419 cumulative IPC: 2.56749 (Simulation time: 0 hr 19 min 36 sec) 
Heartbeat CPU 0 instructions: 40000003 cycles: 15433741 heartbeat IPC: 2.66726 cumulative IPC: 2.59172 (Simulation time: 0 hr 26 min 11 sec) 
Heartbeat CPU 0 instructions: 50000003 cycles: 18663235 heartbeat IPC: 3.09646 cumulative IPC: 2.67906 (Simulation time: 0 hr 32 min 44 sec) 

Warmup complete CPU 0 instructions: 50000003 cycles: 18663235 (Simulation time: 0 hr 32 min 44 sec) 

Heartbeat CPU 0 instructions: 60000002 cycles: 27097579 heartbeat IPC: 1.18563 cumulative IPC: 1.18563 (Simulation time: 0 hr 41 min 2 sec) 
Heartbeat CPU 0 instructions: 70000000 cycles: 35010285 heartbeat IPC: 1.26379 cumulative IPC: 1.22346 (Simulation time: 0 hr 49 min 30 sec) 
Heartbeat CPU 0 instructions: 80000001 cycles: 55863015 heartbeat IPC: 0.479554 cumulative IPC: 0.806456 (Simulation time: 0 hr 58 min 39 sec) 
Heartbeat CPU 0 instructions: 90000003 cycles: 70671656 heartbeat IPC: 0.675282 cumulative IPC: 0.769106 (Simulation time: 1 hr 7 min 8 sec) 
Heartbeat CPU 0 instructions: 100000003 cycles: 79221326 heartbeat IPC: 1.16964 cumulative IPC: 0.825653 (Simulation time: 1 hr 15 min 25 sec) 
Finished CPU 0 instructions: 50000000 cycles: 60558091 cumulative IPC: 0.825653 (Simulation time: 1 hr 15 min 25 sec) 

ChampSim completed all CPUs

Region of Interest Statistics

CPU 0 cumulative IPC: 0.825653 instructions: 50000000 cycles: 60558091
L1D TOTAL     ACCESS:   21593437  HIT:   17522397  MISS:    4071040
L1D LOAD      ACCESS:    8581365  HIT:    6562373  MISS:    2018992
L1D RFO       ACCESS:    4640637  HIT:    4533787  MISS:     106850
L1D PREFETCH  ACCESS:    8371435  HIT:    6426237  MISS:    1945198
L1D WRITEBACK ACCESS:          0  HIT:          0  MISS:          0
L1D PREFETCH  REQUESTED:    8616529  ISSUED:    8527664  USEFUL:     105595  USELESS:    1839594
L1D AVERAGE MISS LATENCY: 23.0197 cycles
L1I TOTAL     ACCESS:   40155926  HIT:   38522665  MISS:    1633261
L1I LOAD      ACCESS:   10725149  HIT:   10653602  MISS:      71547
L1I RFO       ACCESS:          0  HIT:          0  MISS:          0
L1I PREFETCH  ACCESS:   29430777  HIT:   27869063  MISS:    1561714
L1I WRITEBACK ACCESS:          0  HIT:          0  MISS:          0
L1I PREFETCH  REQUESTED:   40205089  ISSUED:   40205089  USEFUL:    1053572  USELESS:     508049
L1I AVERAGE MISS LATENCY: 34.9141 cycles
L2C TOTAL     ACCESS:    7239080  HIT:    6177804  MISS:    1061276
L2C LOAD      ACCESS:    2045403  HIT:    1812350  MISS:     233053
L2C RFO       ACCESS:     105597  HIT:      56627  MISS:      48970
L2C PREFETCH  ACCESS:    4843058  HIT:    4065236  MISS:     777822
L2C WRITEBACK ACCESS:     245022  HIT:     243591  MISS:       1431
L2C PREFETCH  REQUESTED:    6292120  ISSUED:    6287872  USEFUL:      24181  USELESS:     752931
L2C AVERAGE MISS LATENCY: 59.9883 cycles
LLC TOTAL     ACCESS:    2371328  HIT:    2133772  MISS:     237556
LLC LOAD      ACCESS:     232361  HIT:     191836  MISS:      40525
LLC RFO       ACCESS:      48967  HIT:      33248  MISS:      15719
LLC PREFETCH  ACCESS:    1948330  HIT:    1767374  MISS:     180956
LLC WRITEBACK ACCESS:     141670  HIT:     141314  MISS:        356
LLC PREFETCH  REQUESTED:          0  ISSUED:          0  USEFUL:      19658  USELESS:     160836
LLC AVERAGE MISS LATENCY: 178.424 cycles
Major fault: 0 Minor fault: 7599
CPU 0 L1I EPI prefetcher final stats
CPU 0 L1D next line prefetcher final stats

DRAM Statistics
 CHANNEL 0
 RQ ROW_BUFFER_HIT:      50215  ROW_BUFFER_MISS:     186950
 DBUS_CONGESTED:     102237
 WQ ROW_BUFFER_HIT:      10958  ROW_BUFFER_MISS:      44461  FULL:          0

 AVG_CONGESTED_CYCLE: 5

CPU 0 Branch Prediction Accuracy: 98.1603% MPKI: 3.89124 Average ROB Occupancy at Mispredict: 68.3668

Branch types
NOT_BRANCH: 39423755 78.8475%
BRANCH_DIRECT_JUMP: 551642 1.10328%
BRANCH_INDIRECT: 139368 0.278736%
BRANCH_CONDITIONAL: 7920858 15.8417%
BRANCH_DIRECT_CALL: 776072 1.55214%
BRANCH_INDIRECT_CALL: 194644 0.389288%
BRANCH_RETURN: 993311 1.98662%
BRANCH_OTHER: 0 0%

