Initialize SIGNATURE TABLE
ST_SET: 1
ST_WAY: 256
ST_TAG_BIT: 16
ST_TAG_MASK: ffff

Initialize PATTERN TABLE
PT_SET: 512
PT_WAY: 4
SIG_DELTA_BIT: 7
C_SIG_BIT: 4
C_DELTA_BIT: 4

Initialize PREFETCH FILTER
FILTER_SET: 1024

*** ChampSim Multicore Out-of-Order Simulator ***

Warmup Instructions: 50000000
Simulation Instructions: 50000000
Number of CPUs: 1
LLC sets: 2048
LLC ways: 16
Off-chip DRAM Size: 4096 MB Channels: 1 Width: 64-bit Data Rate: 3200 MT/s

CPU 0 runs /home/sankara2004/240C/hw1/ChampSim_2/ChampSim/ipc1_public/server_010.champsimtrace.xz
LHT KB: 126.25
SCC KB: 1.56
Total KB: 127.81
CPU 0 L1D next line prefetcher
Heartbeat CPU 0 instructions: 10000000 cycles: 3195933 heartbeat IPC: 3.12898 cumulative IPC: 3.12898 (Simulation time: 0 hr 5 min 42 sec) 
Heartbeat CPU 0 instructions: 20000002 cycles: 6389133 heartbeat IPC: 3.13166 cumulative IPC: 3.13032 (Simulation time: 0 hr 11 min 21 sec) 
Heartbeat CPU 0 instructions: 30000001 cycles: 9585490 heartbeat IPC: 3.12856 cumulative IPC: 3.12973 (Simulation time: 0 hr 17 min 3 sec) 
Heartbeat CPU 0 instructions: 40000000 cycles: 12777597 heartbeat IPC: 3.13273 cumulative IPC: 3.13048 (Simulation time: 0 hr 22 min 42 sec) 
Heartbeat CPU 0 instructions: 50000003 cycles: 15975095 heartbeat IPC: 3.12745 cumulative IPC: 3.12987 (Simulation time: 0 hr 28 min 17 sec) 

Warmup complete CPU 0 instructions: 50000003 cycles: 15975095 (Simulation time: 0 hr 28 min 17 sec) 

Heartbeat CPU 0 instructions: 60000001 cycles: 23292338 heartbeat IPC: 1.36663 cumulative IPC: 1.36663 (Simulation time: 0 hr 35 min 39 sec) 
Heartbeat CPU 0 instructions: 70000000 cycles: 30686403 heartbeat IPC: 1.35244 cumulative IPC: 1.3595 (Simulation time: 0 hr 43 min 7 sec) 
Heartbeat CPU 0 instructions: 80000003 cycles: 38158517 heartbeat IPC: 1.33831 cumulative IPC: 1.35236 (Simulation time: 0 hr 50 min 42 sec) 
Heartbeat CPU 0 instructions: 90000002 cycles: 45377077 heartbeat IPC: 1.38532 cumulative IPC: 1.36045 (Simulation time: 0 hr 58 min 4 sec) 
Heartbeat CPU 0 instructions: 100000003 cycles: 66061030 heartbeat IPC: 0.483467 cumulative IPC: 0.998284 (Simulation time: 1 hr 5 min 19 sec) 
Finished CPU 0 instructions: 50000000 cycles: 50085935 cumulative IPC: 0.998284 (Simulation time: 1 hr 5 min 19 sec) 

ChampSim completed all CPUs

Region of Interest Statistics

CPU 0 cumulative IPC: 0.998284 instructions: 50000000 cycles: 50085935
L1D TOTAL     ACCESS:   20002369  HIT:   16776709  MISS:    3225660
L1D LOAD      ACCESS:    7754890  HIT:    6162473  MISS:    1592417
L1D RFO       ACCESS:    4716750  HIT:    4622287  MISS:      94463
L1D PREFETCH  ACCESS:    7530729  HIT:    5991949  MISS:    1538780
L1D WRITEBACK ACCESS:          0  HIT:          0  MISS:          0
L1D PREFETCH  REQUESTED:    7788502  ISSUED:    7691078  USEFUL:     117996  USELESS:    1420756
L1D AVERAGE MISS LATENCY: 22.6431 cycles
L1I TOTAL     ACCESS:   17966417  HIT:   16155710  MISS:    1810707
L1I LOAD      ACCESS:    9895067  HIT:    9574029  MISS:     321038
L1I RFO       ACCESS:          0  HIT:          0  MISS:          0
L1I PREFETCH  ACCESS:    8071350  HIT:    6581681  MISS:    1489669
L1I WRITEBACK ACCESS:          0  HIT:          0  MISS:          0
L1I PREFETCH  REQUESTED:    9554563  ISSUED:    9554563  USEFUL:     910711  USELESS:     578869
L1I AVERAGE MISS LATENCY: 24.7101 cycles
L2C TOTAL     ACCESS:    6532078  HIT:    5399089  MISS:    1132989
L2C LOAD      ACCESS:    1612918  HIT:    1379831  MISS:     233087
L2C RFO       ACCESS:      93369  HIT:      48164  MISS:      45205
L2C PREFETCH  ACCESS:    4560419  HIT:    3707243  MISS:     853176
L2C WRITEBACK ACCESS:     265372  HIT:     263851  MISS:       1521
L2C PREFETCH  REQUESTED:    5765672  ISSUED:    5762486  USEFUL:      23470  USELESS:     830356
L2C AVERAGE MISS LATENCY: 45.223 cycles
LLC TOTAL     ACCESS:    2357761  HIT:    2238663  MISS:     119098
LLC LOAD      ACCESS:     233008  HIT:     217360  MISS:      15648
LLC RFO       ACCESS:      45187  HIT:      36401  MISS:       8786
LLC PREFETCH  ACCESS:    1929024  HIT:    1834507  MISS:      94517
LLC WRITEBACK ACCESS:     150542  HIT:     150395  MISS:        147
LLC PREFETCH  REQUESTED:          0  ISSUED:          0  USEFUL:       8806  USELESS:      85900
LLC AVERAGE MISS LATENCY: 174.47 cycles
Major fault: 0 Minor fault: 5619
CPU 0 L1D next line prefetcher final stats

DRAM Statistics
 CHANNEL 0
 RQ ROW_BUFFER_HIT:      19823  ROW_BUFFER_MISS:      99125
 DBUS_CONGESTED:      55260
 WQ ROW_BUFFER_HIT:       9601  ROW_BUFFER_MISS:      43867  FULL:          0

 AVG_CONGESTED_CYCLE: 5

CPU 0 Branch Prediction Accuracy: 99.5528% MPKI: 0.89798 Average ROB Occupancy at Mispredict: 117.98

Branch types
NOT_BRANCH: 39958786 79.9176%
BRANCH_DIRECT_JUMP: 449946 0.899892%
BRANCH_INDIRECT: 140210 0.28042%
BRANCH_CONDITIONAL: 7679676 15.3594%
BRANCH_DIRECT_CALL: 701578 1.40316%
BRANCH_INDIRECT_CALL: 168971 0.337942%
BRANCH_RETURN: 900560 1.80112%
BRANCH_OTHER: 0 0%

