Initialize SIGNATURE TABLE
ST_SET: 1
ST_WAY: 256
ST_TAG_BIT: 16
ST_TAG_MASK: ffff

Initialize PATTERN TABLE
PT_SET: 512
PT_WAY: 4
SIG_DELTA_BIT: 7
C_SIG_BIT: 4
C_DELTA_BIT: 4

Initialize PREFETCH FILTER
FILTER_SET: 1024

*** ChampSim Multicore Out-of-Order Simulator ***

Warmup Instructions: 50000000
Simulation Instructions: 50000000
Number of CPUs: 1
LLC sets: 2048
LLC ways: 16
Off-chip DRAM Size: 4096 MB Channels: 1 Width: 64-bit Data Rate: 3200 MT/s

CPU 0 runs /home/sankara2004/240C/hw1/ChampSim_2/ChampSim/ipc1_public/server_025.champsimtrace.xz
CPU 0 EPI prefetcher
CPU 0 L1D next line prefetcher
Heartbeat CPU 0 instructions: 10000003 cycles: 3524838 heartbeat IPC: 2.83701 cumulative IPC: 2.83701 (Simulation time: 0 hr 6 min 30 sec) 
Heartbeat CPU 0 instructions: 20000000 cycles: 7056657 heartbeat IPC: 2.8314 cumulative IPC: 2.8342 (Simulation time: 0 hr 12 min 59 sec) 
Heartbeat CPU 0 instructions: 30000001 cycles: 10580539 heartbeat IPC: 2.83778 cumulative IPC: 2.83539 (Simulation time: 0 hr 19 min 33 sec) 
Heartbeat CPU 0 instructions: 40000003 cycles: 14110727 heartbeat IPC: 2.83271 cumulative IPC: 2.83472 (Simulation time: 0 hr 26 min 3 sec) 
Heartbeat CPU 0 instructions: 50000001 cycles: 17639188 heartbeat IPC: 2.8341 cumulative IPC: 2.8346 (Simulation time: 0 hr 32 min 32 sec) 

Warmup complete CPU 0 instructions: 50000001 cycles: 17639188 (Simulation time: 0 hr 32 min 32 sec) 

Heartbeat CPU 0 instructions: 60000002 cycles: 24407274 heartbeat IPC: 1.47752 cumulative IPC: 1.47752 (Simulation time: 0 hr 40 min 49 sec) 
Heartbeat CPU 0 instructions: 70000000 cycles: 31282632 heartbeat IPC: 1.45447 cumulative IPC: 1.46591 (Simulation time: 0 hr 49 min 13 sec) 
Heartbeat CPU 0 instructions: 80000002 cycles: 38077542 heartbeat IPC: 1.47169 cumulative IPC: 1.46783 (Simulation time: 0 hr 57 min 43 sec) 
Heartbeat CPU 0 instructions: 90000001 cycles: 44541539 heartbeat IPC: 1.54703 cumulative IPC: 1.48686 (Simulation time: 1 hr 5 min 58 sec) 
Heartbeat CPU 0 instructions: 100000003 cycles: 50729789 heartbeat IPC: 1.61597 cumulative IPC: 1.511 (Simulation time: 1 hr 14 min 2 sec) 
Finished CPU 0 instructions: 50000002 cycles: 33090601 cumulative IPC: 1.511 (Simulation time: 1 hr 14 min 2 sec) 

ChampSim completed all CPUs

Region of Interest Statistics

CPU 0 cumulative IPC: 1.511 instructions: 50000002 cycles: 33090601
L1D TOTAL     ACCESS:   19976032  HIT:   18550739  MISS:    1425293
L1D LOAD      ACCESS:    6957339  HIT:    6337973  MISS:     619366
L1D RFO       ACCESS:    6374589  HIT:    6126202  MISS:     248387
L1D PREFETCH  ACCESS:    6644104  HIT:    6086564  MISS:     557540
L1D WRITEBACK ACCESS:          0  HIT:          0  MISS:          0
L1D PREFETCH  REQUESTED:    6997566  ISSUED:    6823479  USEFUL:     130385  USELESS:     427148
L1D AVERAGE MISS LATENCY: 23.0377 cycles
L1I TOTAL     ACCESS:   30128867  HIT:   27127893  MISS:    3000974
L1I LOAD      ACCESS:    9482558  HIT:    9412400  MISS:      70158
L1I RFO       ACCESS:          0  HIT:          0  MISS:          0
L1I PREFETCH  ACCESS:   20646309  HIT:   17715493  MISS:    2930816
L1I WRITEBACK ACCESS:          0  HIT:          0  MISS:          0
L1I PREFETCH  REQUESTED:   26413743  ISSUED:   26413743  USEFUL:    2412541  USELESS:     518344
L1I AVERAGE MISS LATENCY: 18.9206 cycles
L2C TOTAL     ACCESS:    6078009  HIT:    5422140  MISS:     655869
L2C LOAD      ACCESS:     631387  HIT:     521059  MISS:     110328
L2C RFO       ACCESS:     246774  HIT:     168156  MISS:      78618
L2C PREFETCH  ACCESS:    4703109  HIT:    4240081  MISS:     463028
L2C WRITEBACK ACCESS:     496739  HIT:     492844  MISS:       3895
L2C PREFETCH  REQUESTED:    4965581  ISSUED:    4951388  USEFUL:      10325  USELESS:     452149
L2C AVERAGE MISS LATENCY: 38.6331 cycles
LLC TOTAL     ACCESS:    2068857  HIT:    2038118  MISS:      30739
LLC LOAD      ACCESS:     110209  HIT:     106955  MISS:       3254
LLC RFO       ACCESS:      78605  HIT:      67784  MISS:      10821
LLC PREFETCH  ACCESS:    1750539  HIT:    1734128  MISS:      16411
LLC WRITEBACK ACCESS:     129504  HIT:     129251  MISS:        253
LLC PREFETCH  REQUESTED:          0  ISSUED:          0  USEFUL:       1123  USELESS:      14493
LLC AVERAGE MISS LATENCY: 177.883 cycles
Major fault: 0 Minor fault: 2460
CPU 0 L1I EPI prefetcher final stats
CPU 0 L1D next line prefetcher final stats

DRAM Statistics
 CHANNEL 0
 RQ ROW_BUFFER_HIT:       9556  ROW_BUFFER_MISS:      20925
 DBUS_CONGESTED:      18765
 WQ ROW_BUFFER_HIT:       1346  ROW_BUFFER_MISS:      11809  FULL:          0

 AVG_CONGESTED_CYCLE: 6

CPU 0 Branch Prediction Accuracy: 99.8142% MPKI: 0.34676 Average ROB Occupancy at Mispredict: 204.085

Branch types
NOT_BRANCH: 40668938 81.3379%
BRANCH_DIRECT_JUMP: 531701 1.0634%
BRANCH_INDIRECT: 199025 0.39805%
BRANCH_CONDITIONAL: 6211502 12.423%
BRANCH_DIRECT_CALL: 1010912 2.02182%
BRANCH_INDIRECT_CALL: 183501 0.367002%
BRANCH_RETURN: 1194416 2.38883%
BRANCH_OTHER: 0 0%

