Initialize SIGNATURE TABLE
ST_SET: 1
ST_WAY: 256
ST_TAG_BIT: 16
ST_TAG_MASK: ffff

Initialize PATTERN TABLE
PT_SET: 512
PT_WAY: 4
SIG_DELTA_BIT: 7
C_SIG_BIT: 4
C_DELTA_BIT: 4

Initialize PREFETCH FILTER
FILTER_SET: 1024

*** ChampSim Multicore Out-of-Order Simulator ***

Warmup Instructions: 50000000
Simulation Instructions: 50000000
Number of CPUs: 1
LLC sets: 2048
LLC ways: 16
Off-chip DRAM Size: 4096 MB Channels: 1 Width: 64-bit Data Rate: 3200 MT/s

CPU 0 runs /home/sankara2004/240C/hw1/ChampSim_2/ChampSim/ipc1_public/server_039.champsimtrace.xz
LHT KB: 126.25
SCC KB: 1.56
Total KB: 127.81
CPU 0 L1D next line prefetcher
Heartbeat CPU 0 instructions: 10000003 cycles: 3451770 heartbeat IPC: 2.89707 cumulative IPC: 2.89707 (Simulation time: 0 hr 5 min 56 sec) 
Heartbeat CPU 0 instructions: 20000002 cycles: 6896586 heartbeat IPC: 2.90291 cumulative IPC: 2.89999 (Simulation time: 0 hr 11 min 45 sec) 
Heartbeat CPU 0 instructions: 30000001 cycles: 10343235 heartbeat IPC: 2.90137 cumulative IPC: 2.90045 (Simulation time: 0 hr 17 min 37 sec) 
Heartbeat CPU 0 instructions: 40000002 cycles: 13785198 heartbeat IPC: 2.90532 cumulative IPC: 2.90166 (Simulation time: 0 hr 23 min 25 sec) 
Heartbeat CPU 0 instructions: 50000001 cycles: 17226509 heartbeat IPC: 2.90587 cumulative IPC: 2.9025 (Simulation time: 0 hr 29 min 10 sec) 

Warmup complete CPU 0 instructions: 50000001 cycles: 17226509 (Simulation time: 0 hr 29 min 10 sec) 

Heartbeat CPU 0 instructions: 60000000 cycles: 23083831 heartbeat IPC: 1.70726 cumulative IPC: 1.70726 (Simulation time: 0 hr 36 min 50 sec) 
Heartbeat CPU 0 instructions: 70000000 cycles: 28931704 heartbeat IPC: 1.71002 cumulative IPC: 1.70864 (Simulation time: 0 hr 44 min 39 sec) 
Heartbeat CPU 0 instructions: 80000000 cycles: 34799889 heartbeat IPC: 1.7041 cumulative IPC: 1.70713 (Simulation time: 0 hr 52 min 32 sec) 
Heartbeat CPU 0 instructions: 90000001 cycles: 40659136 heartbeat IPC: 1.7067 cumulative IPC: 1.70702 (Simulation time: 1 hr 0 min 11 sec) 
Heartbeat CPU 0 instructions: 100000002 cycles: 46527343 heartbeat IPC: 1.7041 cumulative IPC: 1.70644 (Simulation time: 1 hr 7 min 37 sec) 
Finished CPU 0 instructions: 50000001 cycles: 29300834 cumulative IPC: 1.70644 (Simulation time: 1 hr 7 min 37 sec) 

ChampSim completed all CPUs

Region of Interest Statistics

CPU 0 cumulative IPC: 1.70644 instructions: 50000001 cycles: 29300834
L1D TOTAL     ACCESS:   20011638  HIT:   19516903  MISS:     494735
L1D LOAD      ACCESS:    6552101  HIT:    6330393  MISS:     221708
L1D RFO       ACCESS:    7087912  HIT:    7021012  MISS:      66900
L1D PREFETCH  ACCESS:    6371625  HIT:    6165498  MISS:     206127
L1D WRITEBACK ACCESS:          0  HIT:          0  MISS:          0
L1D PREFETCH  REQUESTED:    6568443  ISSUED:    6442662  USEFUL:      49994  USELESS:     156137
L1D AVERAGE MISS LATENCY: 15.0523 cycles
L1I TOTAL     ACCESS:   27089682  HIT:   21419730  MISS:    5669952
L1I LOAD      ACCESS:    9271462  HIT:    8815463  MISS:     455999
L1I RFO       ACCESS:          0  HIT:          0  MISS:          0
L1I PREFETCH  ACCESS:   17818220  HIT:   12604267  MISS:    5213953
L1I WRITEBACK ACCESS:          0  HIT:          0  MISS:          0
L1I PREFETCH  REQUESTED:   20191050  ISSUED:   20191050  USEFUL:    3788475  USELESS:    1425507
L1I AVERAGE MISS LATENCY: 13.4539 cycles
L2C TOTAL     ACCESS:    8161994  HIT:    8161987  MISS:          7
L2C LOAD      ACCESS:     307885  HIT:     307885  MISS:          0
L2C RFO       ACCESS:      66755  HIT:      66755  MISS:          0
L2C PREFETCH  ACCESS:    7607336  HIT:    7607330  MISS:          6
L2C WRITEBACK ACCESS:     180018  HIT:     180017  MISS:          1
L2C PREFETCH  REQUESTED:    3266938  ISSUED:    3266928  USEFUL:          5  USELESS:          0
L2C AVERAGE MISS LATENCY: 25.7143 cycles
LLC TOTAL     ACCESS:     201342  HIT:     200779  MISS:        563
LLC LOAD      ACCESS:          0  HIT:          0  MISS:          0
LLC RFO       ACCESS:          0  HIT:          0  MISS:          0
LLC PREFETCH  ACCESS:     201342  HIT:     200779  MISS:        563
LLC WRITEBACK ACCESS:          0  HIT:          0  MISS:          0
LLC PREFETCH  REQUESTED:          0  ISSUED:          0  USEFUL:          0  USELESS:          0
LLC AVERAGE MISS LATENCY: 164.941 cycles
Major fault: 0 Minor fault: 361
CPU 0 L1D next line prefetcher final stats

DRAM Statistics
 CHANNEL 0
 RQ ROW_BUFFER_HIT:         37  ROW_BUFFER_MISS:        526
 DBUS_CONGESTED:          4
 WQ ROW_BUFFER_HIT:          0  ROW_BUFFER_MISS:          0  FULL:          0

 AVG_CONGESTED_CYCLE: 6

CPU 0 Branch Prediction Accuracy: 99.9091% MPKI: 0.1547 Average ROB Occupancy at Mispredict: 246.199

Branch types
NOT_BRANCH: 41495032 82.9901%
BRANCH_DIRECT_JUMP: 491309 0.982618%
BRANCH_INDIRECT: 0 0%
BRANCH_CONDITIONAL: 5595262 11.1905%
BRANCH_DIRECT_CALL: 1028409 2.05682%
BRANCH_INDIRECT_CALL: 180757 0.361514%
BRANCH_RETURN: 1209169 2.41834%
BRANCH_OTHER: 0 0%

