Initialize SIGNATURE TABLE
ST_SET: 1
ST_WAY: 256
ST_TAG_BIT: 16
ST_TAG_MASK: ffff

Initialize PATTERN TABLE
PT_SET: 512
PT_WAY: 4
SIG_DELTA_BIT: 7
C_SIG_BIT: 4
C_DELTA_BIT: 4

Initialize PREFETCH FILTER
FILTER_SET: 1024

*** ChampSim Multicore Out-of-Order Simulator ***

Warmup Instructions: 50000000
Simulation Instructions: 50000000
Number of CPUs: 1
LLC sets: 2048
LLC ways: 16
Off-chip DRAM Size: 4096 MB Channels: 1 Width: 64-bit Data Rate: 3200 MT/s

CPU 0 runs /home/sankara2004/240C/hw1/ChampSim_2/ChampSim/ipc1_public/server_012.champsimtrace.xz
LHT KB: 126.25
SCC KB: 1.56
Total KB: 127.81
CPU 0 L1D next line prefetcher
Heartbeat CPU 0 instructions: 10000002 cycles: 3200935 heartbeat IPC: 3.12409 cumulative IPC: 3.12409 (Simulation time: 0 hr 5 min 51 sec) 
Heartbeat CPU 0 instructions: 20000002 cycles: 6405170 heartbeat IPC: 3.12087 cumulative IPC: 3.12248 (Simulation time: 0 hr 11 min 38 sec) 
Heartbeat CPU 0 instructions: 30000001 cycles: 9610515 heartbeat IPC: 3.11979 cumulative IPC: 3.12158 (Simulation time: 0 hr 17 min 27 sec) 
Heartbeat CPU 0 instructions: 40000000 cycles: 12822045 heartbeat IPC: 3.11378 cumulative IPC: 3.11963 (Simulation time: 0 hr 23 min 12 sec) 
Heartbeat CPU 0 instructions: 50000003 cycles: 16026350 heartbeat IPC: 3.1208 cumulative IPC: 3.11986 (Simulation time: 0 hr 28 min 53 sec) 

Warmup complete CPU 0 instructions: 50000003 cycles: 16026350 (Simulation time: 0 hr 28 min 53 sec) 

Heartbeat CPU 0 instructions: 60000002 cycles: 23259065 heartbeat IPC: 1.38261 cumulative IPC: 1.38261 (Simulation time: 0 hr 36 min 25 sec) 
Heartbeat CPU 0 instructions: 70000000 cycles: 30546653 heartbeat IPC: 1.3722 cumulative IPC: 1.37738 (Simulation time: 0 hr 44 min 8 sec) 
Heartbeat CPU 0 instructions: 80000003 cycles: 37834488 heartbeat IPC: 1.37215 cumulative IPC: 1.37563 (Simulation time: 0 hr 52 min 0 sec) 
Heartbeat CPU 0 instructions: 90000001 cycles: 45379532 heartbeat IPC: 1.32537 cumulative IPC: 1.36271 (Simulation time: 0 hr 59 min 39 sec) 
Heartbeat CPU 0 instructions: 100000002 cycles: 52780673 heartbeat IPC: 1.35114 cumulative IPC: 1.36038 (Simulation time: 1 hr 7 min 13 sec) 
Finished CPU 0 instructions: 50000001 cycles: 36754324 cumulative IPC: 1.36038 (Simulation time: 1 hr 7 min 13 sec) 

ChampSim completed all CPUs

Region of Interest Statistics

CPU 0 cumulative IPC: 1.36038 instructions: 50000001 cycles: 36754324
L1D TOTAL     ACCESS:   17393768  HIT:   16350615  MISS:    1043153
L1D LOAD      ACCESS:    6335802  HIT:    5848801  MISS:     487001
L1D RFO       ACCESS:    4964541  HIT:    4882544  MISS:      81997
L1D PREFETCH  ACCESS:    6093425  HIT:    5619270  MISS:     474155
L1D WRITEBACK ACCESS:          0  HIT:          0  MISS:          0
L1D PREFETCH  REQUESTED:    6370523  ISSUED:    6271157  USEFUL:     133430  USELESS:     340745
L1D AVERAGE MISS LATENCY: 40.828 cycles
L1I TOTAL     ACCESS:   18245925  HIT:   15746571  MISS:    2499354
L1I LOAD      ACCESS:    8695492  HIT:    8415223  MISS:     280269
L1I RFO       ACCESS:          0  HIT:          0  MISS:          0
L1I PREFETCH  ACCESS:    9550433  HIT:    7331348  MISS:    2219085
L1I WRITEBACK ACCESS:          0  HIT:          0  MISS:          0
L1I PREFETCH  REQUESTED:   12258014  ISSUED:   12258014  USEFUL:    1179726  USELESS:    1039355
L1I AVERAGE MISS LATENCY: 24.6238 cycles
L2C TOTAL     ACCESS:    4614532  HIT:    3308430  MISS:    1306102
L2C LOAD      ACCESS:     517383  HIT:     247417  MISS:     269966
L2C RFO       ACCESS:      80721  HIT:      30450  MISS:      50271
L2C PREFETCH  ACCESS:    3740906  HIT:    2757482  MISS:     983424
L2C WRITEBACK ACCESS:     275522  HIT:     273081  MISS:       2441
L2C PREFETCH  REQUESTED:    3197188  ISSUED:    3192565  USEFUL:      28421  USELESS:     954570
L2C AVERAGE MISS LATENCY: 45.4805 cycles
LLC TOTAL     ACCESS:    2426801  HIT:    2282208  MISS:     144593
LLC LOAD      ACCESS:     269856  HIT:     250728  MISS:      19128
LLC RFO       ACCESS:      50259  HIT:      40838  MISS:       9421
LLC PREFETCH  ACCESS:    1934194  HIT:    1818380  MISS:     115814
LLC WRITEBACK ACCESS:     172492  HIT:     172262  MISS:        230
LLC PREFETCH  REQUESTED:          0  ISSUED:          0  USEFUL:      10239  USELESS:     105376
LLC AVERAGE MISS LATENCY: 172.018 cycles
Major fault: 0 Minor fault: 5623
CPU 0 L1D next line prefetcher final stats

DRAM Statistics
 CHANNEL 0
 RQ ROW_BUFFER_HIT:      22799  ROW_BUFFER_MISS:     121555
 DBUS_CONGESTED:      64508
 WQ ROW_BUFFER_HIT:      10717  ROW_BUFFER_MISS:      48179  FULL:          0

 AVG_CONGESTED_CYCLE: 5

CPU 0 Branch Prediction Accuracy: 99.4607% MPKI: 1.00288 Average ROB Occupancy at Mispredict: 116.256

Branch types
NOT_BRANCH: 40701161 81.4023%
BRANCH_DIRECT_JUMP: 469810 0.93962%
BRANCH_INDIRECT: 153732 0.307464%
BRANCH_CONDITIONAL: 6944091 13.8882%
BRANCH_DIRECT_CALL: 679880 1.35976%
BRANCH_INDIRECT_CALL: 168745 0.33749%
BRANCH_RETURN: 882493 1.76499%
BRANCH_OTHER: 0 0%

