Initialize SIGNATURE TABLE
ST_SET: 1
ST_WAY: 256
ST_TAG_BIT: 16
ST_TAG_MASK: ffff

Initialize PATTERN TABLE
PT_SET: 512
PT_WAY: 4
SIG_DELTA_BIT: 7
C_SIG_BIT: 4
C_DELTA_BIT: 4

Initialize PREFETCH FILTER
FILTER_SET: 1024

*** ChampSim Multicore Out-of-Order Simulator ***

Warmup Instructions: 50000000
Simulation Instructions: 50000000
Number of CPUs: 1
LLC sets: 2048
LLC ways: 16
Off-chip DRAM Size: 4096 MB Channels: 1 Width: 64-bit Data Rate: 3200 MT/s

CPU 0 runs /home/sankara2004/240C/hw1/ChampSim_2/ChampSim/ipc1_public/server_002.champsimtrace.xz
LHT KB: 31.56
SCC KB: 1.56
Total KB: 33.12
CPU 0 L1D next line prefetcher
Heartbeat CPU 0 instructions: 10000000 cycles: 3581239 heartbeat IPC: 2.79233 cumulative IPC: 2.79233 (Simulation time: 0 hr 5 min 53 sec) 
Heartbeat CPU 0 instructions: 20000002 cycles: 7170367 heartbeat IPC: 2.78619 cumulative IPC: 2.78926 (Simulation time: 0 hr 11 min 32 sec) 
Heartbeat CPU 0 instructions: 30000000 cycles: 10711122 heartbeat IPC: 2.82426 cumulative IPC: 2.80083 (Simulation time: 0 hr 17 min 12 sec) 
Heartbeat CPU 0 instructions: 40000000 cycles: 14261367 heartbeat IPC: 2.81671 cumulative IPC: 2.80478 (Simulation time: 0 hr 22 min 50 sec) 
Heartbeat CPU 0 instructions: 50000001 cycles: 17809138 heartbeat IPC: 2.81867 cumulative IPC: 2.80755 (Simulation time: 0 hr 28 min 25 sec) 

Warmup complete CPU 0 instructions: 50000001 cycles: 17809138 (Simulation time: 0 hr 28 min 29 sec) 

Heartbeat CPU 0 instructions: 60000000 cycles: 24246818 heartbeat IPC: 1.55335 cumulative IPC: 1.55335 (Simulation time: 0 hr 35 min 58 sec) 
Heartbeat CPU 0 instructions: 70000003 cycles: 30681578 heartbeat IPC: 1.55406 cumulative IPC: 1.55371 (Simulation time: 0 hr 43 min 50 sec) 
Heartbeat CPU 0 instructions: 80000003 cycles: 37118478 heartbeat IPC: 1.55354 cumulative IPC: 1.55365 (Simulation time: 0 hr 51 min 42 sec) 
Heartbeat CPU 0 instructions: 90000002 cycles: 43553265 heartbeat IPC: 1.55405 cumulative IPC: 1.55375 (Simulation time: 0 hr 59 min 23 sec) 
Heartbeat CPU 0 instructions: 100000003 cycles: 49987344 heartbeat IPC: 1.55422 cumulative IPC: 1.55385 (Simulation time: 1 hr 6 min 53 sec) 
Finished CPU 0 instructions: 50000002 cycles: 32178206 cumulative IPC: 1.55385 (Simulation time: 1 hr 6 min 53 sec) 

ChampSim completed all CPUs

Region of Interest Statistics

CPU 0 cumulative IPC: 1.55385 instructions: 50000002 cycles: 32178206
L1D TOTAL     ACCESS:   21520765  HIT:   21519956  MISS:        809
L1D LOAD      ACCESS:    6600018  HIT:    6599642  MISS:        376
L1D RFO       ACCESS:    8433024  HIT:    8432912  MISS:        112
L1D PREFETCH  ACCESS:    6487723  HIT:    6487402  MISS:        321
L1D WRITEBACK ACCESS:          0  HIT:          0  MISS:          0
L1D PREFETCH  REQUESTED:    6600067  ISSUED:    6495086  USEFUL:         91  USELESS:        231
L1D AVERAGE MISS LATENCY: 33.6032 cycles
L1I TOTAL     ACCESS:   27771779  HIT:   26630136  MISS:    1141643
L1I LOAD      ACCESS:    9836697  HIT:    9730451  MISS:     106246
L1I RFO       ACCESS:          0  HIT:          0  MISS:          0
L1I PREFETCH  ACCESS:   17935082  HIT:   16899685  MISS:    1035397
L1I WRITEBACK ACCESS:          0  HIT:          0  MISS:          0
L1I PREFETCH  REQUESTED:   19814346  ISSUED:   19814346  USEFUL:     826556  USELESS:     208815
L1I AVERAGE MISS LATENCY: 12.8722 cycles
L2C TOTAL     ACCESS:    1381590  HIT:    1381314  MISS:        276
L2C LOAD      ACCESS:       9572  HIT:       9505  MISS:         67
L2C RFO       ACCESS:        112  HIT:        105  MISS:          7
L2C PREFETCH  ACCESS:    1371571  HIT:    1371369  MISS:        202
L2C WRITEBACK ACCESS:        335  HIT:        335  MISS:          0
L2C PREFETCH  REQUESTED:     429790  ISSUED:     429789  USEFUL:         59  USELESS:        121
L2C AVERAGE MISS LATENCY: 80.3841 cycles
LLC TOTAL     ACCESS:      98970  HIT:      98529  MISS:        441
LLC LOAD      ACCESS:         67  HIT:         54  MISS:         13
LLC RFO       ACCESS:          7  HIT:          5  MISS:          2
LLC PREFETCH  ACCESS:      98812  HIT:      98387  MISS:        425
LLC WRITEBACK ACCESS:         84  HIT:         83  MISS:          1
LLC PREFETCH  REQUESTED:          0  ISSUED:          0  USEFUL:          8  USELESS:        137
LLC AVERAGE MISS LATENCY: 194.832 cycles
Major fault: 0 Minor fault: 1881
CPU 0 L1D next line prefetcher final stats

DRAM Statistics
 CHANNEL 0
 RQ ROW_BUFFER_HIT:         55  ROW_BUFFER_MISS:        385
 DBUS_CONGESTED:        165
 WQ ROW_BUFFER_HIT:         37  ROW_BUFFER_MISS:        241  FULL:          0

 AVG_CONGESTED_CYCLE: 6

CPU 0 Branch Prediction Accuracy: 99.8789% MPKI: 0.20388 Average ROB Occupancy at Mispredict: 270.741

Branch types
NOT_BRANCH: 41580695 83.1614%
BRANCH_DIRECT_JUMP: 461630 0.92326%
BRANCH_INDIRECT: 0 0%
BRANCH_CONDITIONAL: 5376437 10.7529%
BRANCH_DIRECT_CALL: 1175775 2.35155%
BRANCH_INDIRECT_CALL: 114840 0.22968%
BRANCH_RETURN: 1290625 2.58125%
BRANCH_OTHER: 0 0%

