Initialize SIGNATURE TABLE
ST_SET: 1
ST_WAY: 256
ST_TAG_BIT: 16
ST_TAG_MASK: ffff

Initialize PATTERN TABLE
PT_SET: 512
PT_WAY: 4
SIG_DELTA_BIT: 7
C_SIG_BIT: 4
C_DELTA_BIT: 4

Initialize PREFETCH FILTER
FILTER_SET: 1024

*** ChampSim Multicore Out-of-Order Simulator ***

Warmup Instructions: 50000000
Simulation Instructions: 50000000
Number of CPUs: 1
LLC sets: 2048
LLC ways: 16
Off-chip DRAM Size: 4096 MB Channels: 1 Width: 64-bit Data Rate: 3200 MT/s

CPU 0 runs /home/sankara2004/240C/hw1/ChampSim_2/ChampSim/ipc1_public/server_027.champsimtrace.xz
CPU 0 EPI prefetcher
CPU 0 L1D next line prefetcher
Heartbeat CPU 0 instructions: 10000001 cycles: 3525878 heartbeat IPC: 2.83617 cumulative IPC: 2.83617 (Simulation time: 0 hr 6 min 31 sec) 
Heartbeat CPU 0 instructions: 20000001 cycles: 7055934 heartbeat IPC: 2.83282 cumulative IPC: 2.83449 (Simulation time: 0 hr 13 min 0 sec) 
Heartbeat CPU 0 instructions: 30000002 cycles: 10581284 heartbeat IPC: 2.8366 cumulative IPC: 2.83519 (Simulation time: 0 hr 19 min 33 sec) 
Heartbeat CPU 0 instructions: 40000000 cycles: 14112370 heartbeat IPC: 2.83199 cumulative IPC: 2.83439 (Simulation time: 0 hr 26 min 3 sec) 
Heartbeat CPU 0 instructions: 50000001 cycles: 17636566 heartbeat IPC: 2.83753 cumulative IPC: 2.83502 (Simulation time: 0 hr 32 min 33 sec) 

Warmup complete CPU 0 instructions: 50000001 cycles: 17636566 (Simulation time: 0 hr 32 min 33 sec) 

Heartbeat CPU 0 instructions: 60000002 cycles: 24484836 heartbeat IPC: 1.46022 cumulative IPC: 1.46022 (Simulation time: 0 hr 40 min 49 sec) 
Heartbeat CPU 0 instructions: 70000003 cycles: 31284581 heartbeat IPC: 1.47064 cumulative IPC: 1.46541 (Simulation time: 0 hr 49 min 13 sec) 
Heartbeat CPU 0 instructions: 80000002 cycles: 38095273 heartbeat IPC: 1.46828 cumulative IPC: 1.46637 (Simulation time: 0 hr 57 min 42 sec) 
Heartbeat CPU 0 instructions: 90000001 cycles: 44968530 heartbeat IPC: 1.45491 cumulative IPC: 1.46349 (Simulation time: 1 hr 5 min 58 sec) 
Heartbeat CPU 0 instructions: 100000002 cycles: 51733243 heartbeat IPC: 1.47826 cumulative IPC: 1.46642 (Simulation time: 1 hr 14 min 2 sec) 
Finished CPU 0 instructions: 50000001 cycles: 34096677 cumulative IPC: 1.46642 (Simulation time: 1 hr 14 min 2 sec) 

ChampSim completed all CPUs

Region of Interest Statistics

CPU 0 cumulative IPC: 1.46642 instructions: 50000001 cycles: 34096677
L1D TOTAL     ACCESS:   19903135  HIT:   18301586  MISS:    1601549
L1D LOAD      ACCESS:    6950418  HIT:    6258891  MISS:     691527
L1D RFO       ACCESS:    6288698  HIT:    6002834  MISS:     285864
L1D PREFETCH  ACCESS:    6664019  HIT:    6039861  MISS:     624158
L1D WRITEBACK ACCESS:          0  HIT:          0  MISS:          0
L1D PREFETCH  REQUESTED:    6995568  ISSUED:    6869123  USEFUL:     149813  USELESS:     474358
L1D AVERAGE MISS LATENCY: 23.6899 cycles
L1I TOTAL     ACCESS:   28585456  HIT:   25133677  MISS:    3451779
L1I LOAD      ACCESS:    9450266  HIT:    9370131  MISS:      80135
L1I RFO       ACCESS:          0  HIT:          0  MISS:          0
L1I PREFETCH  ACCESS:   19135190  HIT:   15763546  MISS:    3371644
L1I WRITEBACK ACCESS:          0  HIT:          0  MISS:          0
L1I PREFETCH  REQUESTED:   24099630  ISSUED:   24099630  USEFUL:    2738177  USELESS:     633496
L1I AVERAGE MISS LATENCY: 19.3856 cycles
L2C TOTAL     ACCESS:    6975836  HIT:    6154589  MISS:     821247
L2C LOAD      ACCESS:     706127  HIT:     573751  MISS:     132376
L2C RFO       ACCESS:     283747  HIT:     195485  MISS:      88262
L2C PREFETCH  ACCESS:    5426656  HIT:    4830601  MISS:     596055
L2C WRITEBACK ACCESS:     559306  HIT:     554752  MISS:       4554
L2C PREFETCH  REQUESTED:    5695389  ISSUED:    5682412  USEFUL:      12678  USELESS:     582765
L2C AVERAGE MISS LATENCY: 38.3908 cycles
LLC TOTAL     ACCESS:    2353097  HIT:    2319284  MISS:      33813
LLC LOAD      ACCESS:     132160  HIT:     128663  MISS:       3497
LLC RFO       ACCESS:      88260  HIT:      74317  MISS:      13943
LLC PREFETCH  ACCESS:    1986324  HIT:    1970158  MISS:      16166
LLC WRITEBACK ACCESS:     146353  HIT:     146146  MISS:        207
LLC PREFETCH  REQUESTED:          0  ISSUED:          0  USEFUL:       1286  USELESS:      14784
LLC AVERAGE MISS LATENCY: 182.108 cycles
Major fault: 0 Minor fault: 2478
CPU 0 L1I EPI prefetcher final stats
CPU 0 L1D next line prefetcher final stats

DRAM Statistics
 CHANNEL 0
 RQ ROW_BUFFER_HIT:      11184  ROW_BUFFER_MISS:      22413
 DBUS_CONGESTED:      22949
 WQ ROW_BUFFER_HIT:       1557  ROW_BUFFER_MISS:      14239  FULL:          0

 AVG_CONGESTED_CYCLE: 6

CPU 0 Branch Prediction Accuracy: 99.8082% MPKI: 0.35064 Average ROB Occupancy at Mispredict: 193.961

Branch types
NOT_BRANCH: 40857507 81.715%
BRANCH_DIRECT_JUMP: 526635 1.05327%
BRANCH_INDIRECT: 205902 0.411804%
BRANCH_CONDITIONAL: 6184049 12.3681%
BRANCH_DIRECT_CALL: 938468 1.87694%
BRANCH_INDIRECT_CALL: 174486 0.348972%
BRANCH_RETURN: 1112959 2.22592%
BRANCH_OTHER: 0 0%

