Initialize SIGNATURE TABLE
ST_SET: 1
ST_WAY: 256
ST_TAG_BIT: 16
ST_TAG_MASK: ffff

Initialize PATTERN TABLE
PT_SET: 512
PT_WAY: 4
SIG_DELTA_BIT: 7
C_SIG_BIT: 4
C_DELTA_BIT: 4

Initialize PREFETCH FILTER
FILTER_SET: 1024

*** ChampSim Multicore Out-of-Order Simulator ***

Warmup Instructions: 50000000
Simulation Instructions: 50000000
Number of CPUs: 1
LLC sets: 2048
LLC ways: 16
Off-chip DRAM Size: 4096 MB Channels: 1 Width: 64-bit Data Rate: 3200 MT/s

CPU 0 runs /home/sankara2004/240C/hw1/ChampSim_2/ChampSim/ipc1_public/server_033.champsimtrace.xz
LHT KB: 126.25
SCC KB: 1.56
Total KB: 127.81
CPU 0 L1D next line prefetcher
Heartbeat CPU 0 instructions: 10000001 cycles: 3340932 heartbeat IPC: 2.99318 cumulative IPC: 2.99318 (Simulation time: 0 hr 5 min 41 sec) 
Heartbeat CPU 0 instructions: 20000002 cycles: 6680073 heartbeat IPC: 2.99478 cumulative IPC: 2.99398 (Simulation time: 0 hr 11 min 21 sec) 
Heartbeat CPU 0 instructions: 30000001 cycles: 10008950 heartbeat IPC: 3.00402 cumulative IPC: 2.99732 (Simulation time: 0 hr 17 min 3 sec) 
Heartbeat CPU 0 instructions: 40000000 cycles: 13346605 heartbeat IPC: 2.99612 cumulative IPC: 2.99702 (Simulation time: 0 hr 22 min 42 sec) 
Heartbeat CPU 0 instructions: 50000000 cycles: 16683607 heartbeat IPC: 2.9967 cumulative IPC: 2.99695 (Simulation time: 0 hr 28 min 20 sec) 

Warmup complete CPU 0 instructions: 50000004 cycles: 16683608 (Simulation time: 0 hr 28 min 20 sec) 

Heartbeat CPU 0 instructions: 60000000 cycles: 23363305 heartbeat IPC: 1.49707 cumulative IPC: 1.49707 (Simulation time: 0 hr 35 min 43 sec) 
Heartbeat CPU 0 instructions: 70000000 cycles: 30001393 heartbeat IPC: 1.50646 cumulative IPC: 1.50175 (Simulation time: 0 hr 43 min 12 sec) 
Heartbeat CPU 0 instructions: 80000000 cycles: 37479815 heartbeat IPC: 1.33718 cumulative IPC: 1.44257 (Simulation time: 0 hr 50 min 49 sec) 
Heartbeat CPU 0 instructions: 90000003 cycles: 44216573 heartbeat IPC: 1.48439 cumulative IPC: 1.4528 (Simulation time: 0 hr 58 min 11 sec) 
Heartbeat CPU 0 instructions: 100000000 cycles: 50902505 heartbeat IPC: 1.49568 cumulative IPC: 1.46118 (Simulation time: 1 hr 5 min 16 sec) 
Finished CPU 0 instructions: 50000000 cycles: 34218904 cumulative IPC: 1.46118 (Simulation time: 1 hr 5 min 16 sec) 

ChampSim completed all CPUs

Region of Interest Statistics

CPU 0 cumulative IPC: 1.46118 instructions: 50000000 cycles: 34218904
L1D TOTAL     ACCESS:   18521560  HIT:   17039134  MISS:    1482426
L1D LOAD      ACCESS:    6278638  HIT:    5596320  MISS:     682318
L1D RFO       ACCESS:    6169054  HIT:    6019129  MISS:     149925
L1D PREFETCH  ACCESS:    6073868  HIT:    5423685  MISS:     650183
L1D WRITEBACK ACCESS:          0  HIT:          0  MISS:          0
L1D PREFETCH  REQUESTED:    6321646  ISSUED:    6211097  USEFUL:     141837  USELESS:     508352
L1D AVERAGE MISS LATENCY: 23.545 cycles
L1I TOTAL     ACCESS:   21252062  HIT:   17027324  MISS:    4224738
L1I LOAD      ACCESS:    9509920  HIT:    8652256  MISS:     857664
L1I RFO       ACCESS:          0  HIT:          0  MISS:          0
L1I PREFETCH  ACCESS:   11742142  HIT:    8375068  MISS:    3367074
L1I WRITEBACK ACCESS:          0  HIT:          0  MISS:          0
L1I PREFETCH  REQUESTED:   14461376  ISSUED:   14461376  USEFUL:    2515312  USELESS:     851636
L1I AVERAGE MISS LATENCY: 12.3686 cycles
L2C TOTAL     ACCESS:    7667374  HIT:    7355202  MISS:     312172
L2C LOAD      ACCESS:     775245  HIT:     656910  MISS:     118335
L2C RFO       ACCESS:     148567  HIT:     129179  MISS:      19388
L2C PREFETCH  ACCESS:    6377058  HIT:    6204952  MISS:     172106
L2C WRITEBACK ACCESS:     366504  HIT:     364161  MISS:       2343
L2C PREFETCH  REQUESTED:    4777296  ISSUED:    4768881  USEFUL:      10341  USELESS:     161305
L2C AVERAGE MISS LATENCY: 47.9809 cycles
LLC TOTAL     ACCESS:    1646592  HIT:    1596665  MISS:      49927
LLC LOAD      ACCESS:     118315  HIT:     105219  MISS:      13096
LLC RFO       ACCESS:      19388  HIT:      16320  MISS:       3068
LLC PREFETCH  ACCESS:    1406343  HIT:    1372820  MISS:      33523
LLC WRITEBACK ACCESS:     102546  HIT:     102306  MISS:        240
LLC PREFETCH  REQUESTED:          0  ISSUED:          0  USEFUL:       5192  USELESS:      28140
LLC AVERAGE MISS LATENCY: 172.546 cycles
Major fault: 0 Minor fault: 2490
CPU 0 L1D next line prefetcher final stats

DRAM Statistics
 CHANNEL 0
 RQ ROW_BUFFER_HIT:       7636  ROW_BUFFER_MISS:      42049
 DBUS_CONGESTED:      19957
 WQ ROW_BUFFER_HIT:       3365  ROW_BUFFER_MISS:      15278  FULL:          0

 AVG_CONGESTED_CYCLE: 5

CPU 0 Branch Prediction Accuracy: 99.9029% MPKI: 0.19006 Average ROB Occupancy at Mispredict: 190.928

Branch types
NOT_BRANCH: 40217107 80.4342%
BRANCH_DIRECT_JUMP: 774599 1.5492%
BRANCH_INDIRECT: 108806 0.217612%
BRANCH_CONDITIONAL: 6379331 12.7587%
BRANCH_DIRECT_CALL: 1048809 2.09762%
BRANCH_INDIRECT_CALL: 211109 0.422218%
BRANCH_RETURN: 1259925 2.51985%
BRANCH_OTHER: 0 0%

