Initialize SIGNATURE TABLE
ST_SET: 1
ST_WAY: 256
ST_TAG_BIT: 16
ST_TAG_MASK: ffff

Initialize PATTERN TABLE
PT_SET: 512
PT_WAY: 4
SIG_DELTA_BIT: 7
C_SIG_BIT: 4
C_DELTA_BIT: 4

Initialize PREFETCH FILTER
FILTER_SET: 1024

*** ChampSim Multicore Out-of-Order Simulator ***

Warmup Instructions: 50000000
Simulation Instructions: 50000000
Number of CPUs: 1
LLC sets: 2048
LLC ways: 16
Off-chip DRAM Size: 4096 MB Channels: 1 Width: 64-bit Data Rate: 3200 MT/s

CPU 0 runs /home/sankara2004/240C/hw1/ChampSim_2/ChampSim/ipc1_public/server_013.champsimtrace.xz
LHT KB: 126.25
SCC KB: 1.56
Total KB: 127.81
CPU 0 L1D next line prefetcher
Heartbeat CPU 0 instructions: 10000000 cycles: 3220855 heartbeat IPC: 3.10477 cumulative IPC: 3.10477 (Simulation time: 0 hr 5 min 51 sec) 
Heartbeat CPU 0 instructions: 20000001 cycles: 6431196 heartbeat IPC: 3.11493 cumulative IPC: 3.10984 (Simulation time: 0 hr 11 min 38 sec) 
Heartbeat CPU 0 instructions: 30000002 cycles: 9645327 heartbeat IPC: 3.11126 cumulative IPC: 3.11031 (Simulation time: 0 hr 17 min 28 sec) 
Heartbeat CPU 0 instructions: 40000002 cycles: 12855278 heartbeat IPC: 3.11531 cumulative IPC: 3.11156 (Simulation time: 0 hr 23 min 13 sec) 
Heartbeat CPU 0 instructions: 50000000 cycles: 16065067 heartbeat IPC: 3.11547 cumulative IPC: 3.11234 (Simulation time: 0 hr 28 min 54 sec) 

Warmup complete CPU 0 instructions: 50000004 cycles: 16065068 (Simulation time: 0 hr 28 min 54 sec) 

Heartbeat CPU 0 instructions: 60000000 cycles: 23758481 heartbeat IPC: 1.29981 cumulative IPC: 1.29981 (Simulation time: 0 hr 36 min 27 sec) 
Heartbeat CPU 0 instructions: 70000002 cycles: 31618203 heartbeat IPC: 1.27231 cumulative IPC: 1.28591 (Simulation time: 0 hr 44 min 10 sec) 
Heartbeat CPU 0 instructions: 80000003 cycles: 38944608 heartbeat IPC: 1.36493 cumulative IPC: 1.31122 (Simulation time: 0 hr 52 min 2 sec) 
Heartbeat CPU 0 instructions: 90000003 cycles: 46448346 heartbeat IPC: 1.33267 cumulative IPC: 1.31651 (Simulation time: 0 hr 59 min 41 sec) 
Heartbeat CPU 0 instructions: 100000003 cycles: 53934933 heartbeat IPC: 1.33572 cumulative IPC: 1.32031 (Simulation time: 1 hr 7 min 14 sec) 
Finished CPU 0 instructions: 50000003 cycles: 37869866 cumulative IPC: 1.32031 (Simulation time: 1 hr 7 min 14 sec) 

ChampSim completed all CPUs

Region of Interest Statistics

CPU 0 cumulative IPC: 1.32031 instructions: 50000003 cycles: 37869866
L1D TOTAL     ACCESS:   17407152  HIT:   16340473  MISS:    1066679
L1D LOAD      ACCESS:    6357093  HIT:    5856484  MISS:     500609
L1D RFO       ACCESS:    4933507  HIT:    4853212  MISS:      80295
L1D PREFETCH  ACCESS:    6116552  HIT:    5630777  MISS:     485775
L1D WRITEBACK ACCESS:          0  HIT:          0  MISS:          0
L1D PREFETCH  REQUESTED:    6392645  ISSUED:    6297578  USEFUL:     134012  USELESS:     351772
L1D AVERAGE MISS LATENCY: 42.548 cycles
L1I TOTAL     ACCESS:   18292947  HIT:   15660290  MISS:    2632657
L1I LOAD      ACCESS:    8664866  HIT:    8370636  MISS:     294230
L1I RFO       ACCESS:          0  HIT:          0  MISS:          0
L1I PREFETCH  ACCESS:    9628081  HIT:    7289654  MISS:    2338427
L1I WRITEBACK ACCESS:          0  HIT:          0  MISS:          0
L1I PREFETCH  REQUESTED:   12574707  ISSUED:   12574707  USEFUL:    1216891  USELESS:    1121469
L1I AVERAGE MISS LATENCY: 25.4345 cycles
L2C TOTAL     ACCESS:    4796814  HIT:    3379050  MISS:    1417764
L2C LOAD      ACCESS:     530548  HIT:     241300  MISS:     289248
L2C RFO       ACCESS:      78890  HIT:      30222  MISS:      48668
L2C PREFETCH  ACCESS:    3911600  HIT:    2834118  MISS:    1077482
L2C WRITEBACK ACCESS:     275776  HIT:     273410  MISS:       2366
L2C PREFETCH  REQUESTED:    3335540  ISSUED:    3331058  USEFUL:      28459  USELESS:    1048727
L2C AVERAGE MISS LATENCY: 46.2986 cycles
LLC TOTAL     ACCESS:    2578720  HIT:    2417758  MISS:     160962
LLC LOAD      ACCESS:     289126  HIT:     267247  MISS:      21879
LLC RFO       ACCESS:      48667  HIT:      39353  MISS:       9314
LLC PREFETCH  ACCESS:    2063633  HIT:    1934185  MISS:     129448
LLC WRITEBACK ACCESS:     177294  HIT:     176973  MISS:        321
LLC PREFETCH  REQUESTED:          0  ISSUED:          0  USEFUL:      11077  USELESS:     117407
LLC AVERAGE MISS LATENCY: 174.056 cycles
Major fault: 0 Minor fault: 6225
CPU 0 L1D next line prefetcher final stats

DRAM Statistics
 CHANNEL 0
 RQ ROW_BUFFER_HIT:      26111  ROW_BUFFER_MISS:     134510
 DBUS_CONGESTED:      72306
 WQ ROW_BUFFER_HIT:      11522  ROW_BUFFER_MISS:      51021  FULL:          0

 AVG_CONGESTED_CYCLE: 5

CPU 0 Branch Prediction Accuracy: 99.4114% MPKI: 1.0933 Average ROB Occupancy at Mispredict: 115.446

Branch types
NOT_BRANCH: 40713270 81.4265%
BRANCH_DIRECT_JUMP: 463701 0.927402%
BRANCH_INDIRECT: 146544 0.293088%
BRANCH_CONDITIONAL: 6981955 13.9639%
BRANCH_DIRECT_CALL: 665005 1.33001%
BRANCH_INDIRECT_CALL: 165152 0.330304%
BRANCH_RETURN: 864314 1.72863%
BRANCH_OTHER: 0 0%

