Initialize SIGNATURE TABLE
ST_SET: 1
ST_WAY: 256
ST_TAG_BIT: 16
ST_TAG_MASK: ffff

Initialize PATTERN TABLE
PT_SET: 512
PT_WAY: 4
SIG_DELTA_BIT: 7
C_SIG_BIT: 4
C_DELTA_BIT: 4

Initialize PREFETCH FILTER
FILTER_SET: 1024

*** ChampSim Multicore Out-of-Order Simulator ***

Warmup Instructions: 50000000
Simulation Instructions: 50000000
Number of CPUs: 1
LLC sets: 2048
LLC ways: 16
Off-chip DRAM Size: 4096 MB Channels: 1 Width: 64-bit Data Rate: 3200 MT/s

CPU 0 runs /home/sankara2004/240C/hw1/ChampSim_2/ChampSim/ipc1_public/server_003.champsimtrace.xz
CPU 0 EPI prefetcher
CPU 0 L1D next line prefetcher
Heartbeat CPU 0 instructions: 10000002 cycles: 3222942 heartbeat IPC: 3.10276 cumulative IPC: 3.10276 (Simulation time: 0 hr 0 min 34 sec) 
Heartbeat CPU 0 instructions: 20000000 cycles: 6541429 heartbeat IPC: 3.01342 cumulative IPC: 3.05744 (Simulation time: 0 hr 1 min 8 sec) 
Heartbeat CPU 0 instructions: 30000000 cycles: 9751363 heartbeat IPC: 3.11533 cumulative IPC: 3.07649 (Simulation time: 0 hr 1 min 42 sec) 
Heartbeat CPU 0 instructions: 40000001 cycles: 13167451 heartbeat IPC: 2.92733 cumulative IPC: 3.03779 (Simulation time: 0 hr 2 min 20 sec) 
Heartbeat CPU 0 instructions: 50000003 cycles: 16886197 heartbeat IPC: 2.68908 cumulative IPC: 2.961 (Simulation time: 0 hr 2 min 57 sec) 

Warmup complete CPU 0 instructions: 50000003 cycles: 16886197 (Simulation time: 0 hr 2 min 57 sec) 

Heartbeat CPU 0 instructions: 60000000 cycles: 25591838 heartbeat IPC: 1.14868 cumulative IPC: 1.14868 (Simulation time: 0 hr 3 min 40 sec) 
Heartbeat CPU 0 instructions: 70000003 cycles: 34547042 heartbeat IPC: 1.11667 cumulative IPC: 1.13245 (Simulation time: 0 hr 4 min 20 sec) 
Heartbeat CPU 0 instructions: 80000000 cycles: 44342290 heartbeat IPC: 1.0209 cumulative IPC: 1.09265 (Simulation time: 0 hr 5 min 3 sec) 
Heartbeat CPU 0 instructions: 90000001 cycles: 54140504 heartbeat IPC: 1.02059 cumulative IPC: 1.0737 (Simulation time: 0 hr 5 min 47 sec) 
Heartbeat CPU 0 instructions: 100000003 cycles: 64377880 heartbeat IPC: 0.976813 cumulative IPC: 1.05282 (Simulation time: 0 hr 6 min 30 sec) 
Finished CPU 0 instructions: 50000000 cycles: 47491683 cumulative IPC: 1.05282 (Simulation time: 0 hr 6 min 30 sec) 

ChampSim completed all CPUs

Region of Interest Statistics

CPU 0 cumulative IPC: 1.05282 instructions: 50000000 cycles: 47491683
L1D TOTAL     ACCESS:   19931676  HIT:   18790906  MISS:    1140770
L1D LOAD      ACCESS:    7821996  HIT:    7291300  MISS:     530696
L1D RFO       ACCESS:    4548837  HIT:    4431474  MISS:     117363
L1D PREFETCH  ACCESS:    7560843  HIT:    7068132  MISS:     492711
L1D WRITEBACK ACCESS:          0  HIT:          0  MISS:          0
L1D PREFETCH  REQUESTED:    7881522  ISSUED:    7790045  USEFUL:     154534  USELESS:     338136
L1D AVERAGE MISS LATENCY: 55.2783 cycles
L1I TOTAL     ACCESS:   35582878  HIT:   34161168  MISS:    1421710
L1I LOAD      ACCESS:    9298649  HIT:    9228426  MISS:      70223
L1I RFO       ACCESS:          0  HIT:          0  MISS:          0
L1I PREFETCH  ACCESS:   26284229  HIT:   24932742  MISS:    1351487
L1I WRITEBACK ACCESS:          0  HIT:          0  MISS:          0
L1I PREFETCH  REQUESTED:   34171519  ISSUED:   34171519  USEFUL:     898736  USELESS:     452819
L1I AVERAGE MISS LATENCY: 38.1119 cycles
L2C TOTAL     ACCESS:    3428591  HIT:    2441565  MISS:     987026
L2C LOAD      ACCESS:     550306  HIT:     307716  MISS:     242590
L2C RFO       ACCESS:     114665  HIT:      40401  MISS:      74264
L2C PREFETCH  ACCESS:    2479363  HIT:    1810418  MISS:     668945
L2C WRITEBACK ACCESS:     284257  HIT:     283030  MISS:       1227
L2C PREFETCH  REQUESTED:    2774208  ISSUED:    2770931  USEFUL:      28317  USELESS:     637973
L2C AVERAGE MISS LATENCY: 82.3193 cycles
LLC TOTAL     ACCESS:    1863389  HIT:    1497051  MISS:     366338
LLC LOAD      ACCESS:     242074  HIT:     177547  MISS:      64527
LLC RFO       ACCESS:      74262  HIT:      32245  MISS:      42017
LLC PREFETCH  ACCESS:    1381497  HIT:    1123097  MISS:     258400
LLC WRITEBACK ACCESS:     165556  HIT:     164162  MISS:       1394
LLC PREFETCH  REQUESTED:          0  ISSUED:          0  USEFUL:      30384  USELESS:     216766
LLC AVERAGE MISS LATENCY: 193.512 cycles
Major fault: 0 Minor fault: 7776
CPU 0 L1I EPI prefetcher final stats
CPU 0 L1D next line prefetcher final stats

DRAM Statistics
 CHANNEL 0
 RQ ROW_BUFFER_HIT:      83586  ROW_BUFFER_MISS:     281312
 DBUS_CONGESTED:     188680
 WQ ROW_BUFFER_HIT:      22368  ROW_BUFFER_MISS:      80322  FULL:          0

 AVG_CONGESTED_CYCLE: 5

CPU 0 Branch Prediction Accuracy: 95.439% MPKI: 9.02702 Average ROB Occupancy at Mispredict: 70.2205

Branch types
NOT_BRANCH: 40104066 80.2081%
BRANCH_DIRECT_JUMP: 497928 0.995856%
BRANCH_INDIRECT: 130587 0.261174%
BRANCH_CONDITIONAL: 7219014 14.438%
BRANCH_DIRECT_CALL: 625807 1.25161%
BRANCH_INDIRECT_CALL: 389787 0.779574%
BRANCH_RETURN: 1032747 2.06549%
BRANCH_OTHER: 0 0%

