Initialize SIGNATURE TABLE
ST_SET: 1
ST_WAY: 256
ST_TAG_BIT: 16
ST_TAG_MASK: ffff

Initialize PATTERN TABLE
PT_SET: 512
PT_WAY: 4
SIG_DELTA_BIT: 7
C_SIG_BIT: 4
C_DELTA_BIT: 4

Initialize PREFETCH FILTER
FILTER_SET: 1024

*** ChampSim Multicore Out-of-Order Simulator ***

Warmup Instructions: 50000000
Simulation Instructions: 50000000
Number of CPUs: 1
LLC sets: 2048
LLC ways: 16
Off-chip DRAM Size: 4096 MB Channels: 1 Width: 64-bit Data Rate: 3200 MT/s

CPU 0 runs /home/sankara2004/240C/hw1/ChampSim_2/ChampSim/ipc1_public/server_018.champsimtrace.xz
LHT KB: 126.25
SCC KB: 1.56
Total KB: 127.81
CPU 0 L1D next line prefetcher
Heartbeat CPU 0 instructions: 10000003 cycles: 3615765 heartbeat IPC: 2.76567 cumulative IPC: 2.76567 (Simulation time: 0 hr 5 min 41 sec) 
Heartbeat CPU 0 instructions: 20000001 cycles: 7236224 heartbeat IPC: 2.76208 cumulative IPC: 2.76387 (Simulation time: 0 hr 11 min 18 sec) 
Heartbeat CPU 0 instructions: 30000003 cycles: 10710953 heartbeat IPC: 2.87792 cumulative IPC: 2.80087 (Simulation time: 0 hr 16 min 59 sec) 
Heartbeat CPU 0 instructions: 40000000 cycles: 14221906 heartbeat IPC: 2.84823 cumulative IPC: 2.81256 (Simulation time: 0 hr 22 min 37 sec) 
Heartbeat CPU 0 instructions: 50000003 cycles: 17838160 heartbeat IPC: 2.76529 cumulative IPC: 2.80298 (Simulation time: 0 hr 28 min 12 sec) 

Warmup complete CPU 0 instructions: 50000003 cycles: 17838160 (Simulation time: 0 hr 28 min 12 sec) 

Heartbeat CPU 0 instructions: 60000000 cycles: 35879335 heartbeat IPC: 0.554287 cumulative IPC: 0.554287 (Simulation time: 0 hr 35 min 35 sec) 
Heartbeat CPU 0 instructions: 70000001 cycles: 54108801 heartbeat IPC: 0.548562 cumulative IPC: 0.55141 (Simulation time: 0 hr 43 min 4 sec) 
Heartbeat CPU 0 instructions: 80000000 cycles: 72132441 heartbeat IPC: 0.554827 cumulative IPC: 0.552544 (Simulation time: 0 hr 50 min 40 sec) 
Heartbeat CPU 0 instructions: 90000002 cycles: 90281862 heartbeat IPC: 0.550982 cumulative IPC: 0.552153 (Simulation time: 0 hr 58 min 2 sec) 
Heartbeat CPU 0 instructions: 100000001 cycles: 108462004 heartbeat IPC: 0.550051 cumulative IPC: 0.551731 (Simulation time: 1 hr 5 min 15 sec) 
Finished CPU 0 instructions: 50000002 cycles: 90623845 cumulative IPC: 0.551731 (Simulation time: 1 hr 5 min 15 sec) 

ChampSim completed all CPUs

Region of Interest Statistics

CPU 0 cumulative IPC: 0.551731 instructions: 50000002 cycles: 90623845
L1D TOTAL     ACCESS:   18675101  HIT:   16457240  MISS:    2217861
L1D LOAD      ACCESS:    7059251  HIT:    6319793  MISS:     739458
L1D RFO       ACCESS:    5850924  HIT:    4898298  MISS:     952626
L1D PREFETCH  ACCESS:    5764926  HIT:    5239149  MISS:     525777
L1D WRITEBACK ACCESS:          0  HIT:          0  MISS:          0
L1D PREFETCH  REQUESTED:    7101404  ISSUED:    6898616  USEFUL:     185938  USELESS:     339928
L1D AVERAGE MISS LATENCY: 175.037 cycles
L1I TOTAL     ACCESS:   22784800  HIT:   19790958  MISS:    2993842
L1I LOAD      ACCESS:   10020547  HIT:    9573941  MISS:     446606
L1I RFO       ACCESS:          0  HIT:          0  MISS:          0
L1I PREFETCH  ACCESS:   12764253  HIT:   10217017  MISS:    2547236
L1I WRITEBACK ACCESS:          0  HIT:          0  MISS:          0
L1I PREFETCH  REQUESTED:   14736985  ISSUED:   14736985  USEFUL:    1918247  USELESS:     628946
L1I AVERAGE MISS LATENCY: 14.9159 cycles
L2C TOTAL     ACCESS:    7488865  HIT:    5632509  MISS:    1856356
L2C LOAD      ACCESS:     539167  HIT:     273514  MISS:     265653
L2C RFO       ACCESS:     951784  HIT:      20582  MISS:     931202
L2C PREFETCH  ACCESS:    4827849  HIT:    4170091  MISS:     657758
L2C WRITEBACK ACCESS:    1170065  HIT:    1168322  MISS:       1743
L2C PREFETCH  REQUESTED:    3381793  ISSUED:    3381129  USEFUL:      24870  USELESS:     633562
L2C AVERAGE MISS LATENCY: 215.91 cycles
LLC TOTAL     ACCESS:    3824981  HIT:    2414553  MISS:    1410428
LLC LOAD      ACCESS:     265644  HIT:     164473  MISS:     101171
LLC RFO       ACCESS:     931195  HIT:     138047  MISS:     793148
LLC PREFETCH  ACCESS:    1528410  HIT:    1013926  MISS:     514484
LLC WRITEBACK ACCESS:    1099732  HIT:    1098107  MISS:       1625
LLC PREFETCH  REQUESTED:          0  ISSUED:          0  USEFUL:      27045  USELESS:     487582
LLC AVERAGE MISS LATENCY: 276.172 cycles
Major fault: 0 Minor fault: 22449
CPU 0 L1D next line prefetcher final stats

DRAM Statistics
 CHANNEL 0
 RQ ROW_BUFFER_HIT:     391344  ROW_BUFFER_MISS:    1017191
 DBUS_CONGESTED:    1395823
 WQ ROW_BUFFER_HIT:     280095  ROW_BUFFER_MISS:     612790  FULL:          0

 AVG_CONGESTED_CYCLE: 6

CPU 0 Branch Prediction Accuracy: 99.7114% MPKI: 0.47678 Average ROB Occupancy at Mispredict: 210.044

Branch types
NOT_BRANCH: 41741008 83.482%
BRANCH_DIRECT_JUMP: 458652 0.917304%
BRANCH_INDIRECT: 48282 0.096564%
BRANCH_CONDITIONAL: 5930881 11.8618%
BRANCH_DIRECT_CALL: 744230 1.48846%
BRANCH_INDIRECT_CALL: 166336 0.332672%
BRANCH_RETURN: 910589 1.82118%
BRANCH_OTHER: 0 0%

