Initialize SIGNATURE TABLE
ST_SET: 1
ST_WAY: 256
ST_TAG_BIT: 16
ST_TAG_MASK: ffff

Initialize PATTERN TABLE
PT_SET: 512
PT_WAY: 4
SIG_DELTA_BIT: 7
C_SIG_BIT: 4
C_DELTA_BIT: 4

Initialize PREFETCH FILTER
FILTER_SET: 1024

*** ChampSim Multicore Out-of-Order Simulator ***

Warmup Instructions: 50000000
Simulation Instructions: 50000000
Number of CPUs: 1
LLC sets: 2048
LLC ways: 16
Off-chip DRAM Size: 4096 MB Channels: 1 Width: 64-bit Data Rate: 3200 MT/s

CPU 0 runs /home/sankara2004/240C/hw1/ChampSim_2/ChampSim/ipc1_public/server_017.champsimtrace.xz
LHT KB: 126.25
SCC KB: 1.56
Total KB: 127.81
CPU 0 L1D next line prefetcher
Heartbeat CPU 0 instructions: 10000001 cycles: 3622070 heartbeat IPC: 2.76085 cumulative IPC: 2.76085 (Simulation time: 0 hr 5 min 41 sec) 
Heartbeat CPU 0 instructions: 20000000 cycles: 7241824 heartbeat IPC: 2.76262 cumulative IPC: 2.76174 (Simulation time: 0 hr 11 min 18 sec) 
Heartbeat CPU 0 instructions: 30000002 cycles: 10868300 heartbeat IPC: 2.7575 cumulative IPC: 2.76032 (Simulation time: 0 hr 16 min 59 sec) 
Heartbeat CPU 0 instructions: 40000000 cycles: 14489834 heartbeat IPC: 2.76126 cumulative IPC: 2.76056 (Simulation time: 0 hr 22 min 37 sec) 
Heartbeat CPU 0 instructions: 50000001 cycles: 18122250 heartbeat IPC: 2.75299 cumulative IPC: 2.75904 (Simulation time: 0 hr 28 min 13 sec) 

Warmup complete CPU 0 instructions: 50000001 cycles: 18122250 (Simulation time: 0 hr 28 min 13 sec) 

Heartbeat CPU 0 instructions: 60000002 cycles: 36150450 heartbeat IPC: 0.554687 cumulative IPC: 0.554687 (Simulation time: 0 hr 35 min 35 sec) 
Heartbeat CPU 0 instructions: 70000002 cycles: 54421367 heartbeat IPC: 0.547318 cumulative IPC: 0.550978 (Simulation time: 0 hr 43 min 5 sec) 
Heartbeat CPU 0 instructions: 80000000 cycles: 72374918 heartbeat IPC: 0.556993 cumulative IPC: 0.552968 (Simulation time: 0 hr 50 min 42 sec) 
Heartbeat CPU 0 instructions: 90000002 cycles: 95970945 heartbeat IPC: 0.4238 cumulative IPC: 0.513817 (Simulation time: 0 hr 58 min 8 sec) 
Heartbeat CPU 0 instructions: 100000003 cycles: 116361107 heartbeat IPC: 0.490433 cumulative IPC: 0.508964 (Simulation time: 1 hr 5 min 19 sec) 
Finished CPU 0 instructions: 50000002 cycles: 98238857 cumulative IPC: 0.508964 (Simulation time: 1 hr 5 min 19 sec) 

ChampSim completed all CPUs

Region of Interest Statistics

CPU 0 cumulative IPC: 0.508964 instructions: 50000002 cycles: 98238857
L1D TOTAL     ACCESS:   18426134  HIT:   16260598  MISS:    2165536
L1D LOAD      ACCESS:    7040076  HIT:    6283003  MISS:     757073
L1D RFO       ACCESS:    5551832  HIT:    4692340  MISS:     859492
L1D PREFETCH  ACCESS:    5834226  HIT:    5285255  MISS:     548971
L1D WRITEBACK ACCESS:          0  HIT:          0  MISS:          0
L1D PREFETCH  REQUESTED:    7078636  ISSUED:    6887034  USEFUL:     186634  USELESS:     362398
L1D AVERAGE MISS LATENCY: 174.675 cycles
L1I TOTAL     ACCESS:   21444736  HIT:   18887038  MISS:    2557698
L1I LOAD      ACCESS:    9798789  HIT:    9397407  MISS:     401382
L1I RFO       ACCESS:          0  HIT:          0  MISS:          0
L1I PREFETCH  ACCESS:   11645947  HIT:    9489631  MISS:    2156316
L1I WRITEBACK ACCESS:          0  HIT:          0  MISS:          0
L1I PREFETCH  REQUESTED:   13429916  ISSUED:   13429916  USEFUL:    1705889  USELESS:     450410
L1I AVERAGE MISS LATENCY: 15.1661 cycles
L2C TOTAL     ACCESS:    6805726  HIT:    4955971  MISS:    1849755
L2C LOAD      ACCESS:     575891  HIT:     245848  MISS:     330043
L2C RFO       ACCESS:     858754  HIT:      17636  MISS:     841118
L2C PREFETCH  ACCESS:    4248176  HIT:    3572104  MISS:     676072
L2C WRITEBACK ACCESS:    1122905  HIT:    1120383  MISS:       2522
L2C PREFETCH  REQUESTED:    3165887  ISSUED:    3165366  USEFUL:      24024  USELESS:     652499
L2C AVERAGE MISS LATENCY: 209.578 cycles
LLC TOTAL     ACCESS:    3813242  HIT:    2330914  MISS:    1482328
LLC LOAD      ACCESS:     330025  HIT:     173944  MISS:     156081
LLC RFO       ACCESS:     841114  HIT:     122765  MISS:     718349
LLC PREFETCH  ACCESS:    1579732  HIT:     973561  MISS:     606171
LLC WRITEBACK ACCESS:    1062371  HIT:    1060644  MISS:       1727
LLC PREFETCH  REQUESTED:          0  ISSUED:          0  USEFUL:      43506  USELESS:     561842
LLC AVERAGE MISS LATENCY: 262.592 cycles
Major fault: 0 Minor fault: 24702
CPU 0 L1D next line prefetcher final stats

DRAM Statistics
 CHANNEL 0
 RQ ROW_BUFFER_HIT:     358506  ROW_BUFFER_MISS:    1121970
 DBUS_CONGESTED:    1416593
 WQ ROW_BUFFER_HIT:     268308  ROW_BUFFER_MISS:     606383  FULL:          0

 AVG_CONGESTED_CYCLE: 6

CPU 0 Branch Prediction Accuracy: 99.2833% MPKI: 1.20568 Average ROB Occupancy at Mispredict: 181.28

Branch types
NOT_BRANCH: 41588350 83.1767%
BRANCH_DIRECT_JUMP: 464501 0.929002%
BRANCH_INDIRECT: 45704 0.091408%
BRANCH_CONDITIONAL: 6147408 12.2948%
BRANCH_DIRECT_CALL: 675450 1.3509%
BRANCH_INDIRECT_CALL: 201532 0.403064%
BRANCH_RETURN: 876985 1.75397%
BRANCH_OTHER: 0 0%

