Initialize SIGNATURE TABLE
ST_SET: 1
ST_WAY: 256
ST_TAG_BIT: 16
ST_TAG_MASK: ffff

Initialize PATTERN TABLE
PT_SET: 512
PT_WAY: 4
SIG_DELTA_BIT: 7
C_SIG_BIT: 4
C_DELTA_BIT: 4

Initialize PREFETCH FILTER
FILTER_SET: 1024

*** ChampSim Multicore Out-of-Order Simulator ***

Warmup Instructions: 50000000
Simulation Instructions: 50000000
Number of CPUs: 1
LLC sets: 2048
LLC ways: 16
Off-chip DRAM Size: 4096 MB Channels: 1 Width: 64-bit Data Rate: 3200 MT/s

CPU 0 runs /home/sankara2004/240C/hw1/ChampSim_2/ChampSim/ipc1_public/server_029.champsimtrace.xz
CPU 0 EPI prefetcher
CPU 0 L1D next line prefetcher
Heartbeat CPU 0 instructions: 10000001 cycles: 3487978 heartbeat IPC: 2.86699 cumulative IPC: 2.86699 (Simulation time: 0 hr 6 min 32 sec) 
Heartbeat CPU 0 instructions: 20000002 cycles: 6975618 heartbeat IPC: 2.86727 cumulative IPC: 2.86713 (Simulation time: 0 hr 13 min 1 sec) 
Heartbeat CPU 0 instructions: 30000003 cycles: 10464702 heartbeat IPC: 2.86608 cumulative IPC: 2.86678 (Simulation time: 0 hr 19 min 35 sec) 
Heartbeat CPU 0 instructions: 40000000 cycles: 13960904 heartbeat IPC: 2.86025 cumulative IPC: 2.86514 (Simulation time: 0 hr 26 min 7 sec) 
Heartbeat CPU 0 instructions: 50000000 cycles: 17455975 heartbeat IPC: 2.86117 cumulative IPC: 2.86435 (Simulation time: 0 hr 32 min 37 sec) 

Warmup complete CPU 0 instructions: 50000004 cycles: 17455976 (Simulation time: 0 hr 32 min 37 sec) 

Heartbeat CPU 0 instructions: 60000000 cycles: 24937906 heartbeat IPC: 1.33655 cumulative IPC: 1.33655 (Simulation time: 0 hr 40 min 54 sec) 
Heartbeat CPU 0 instructions: 70000003 cycles: 32588484 heartbeat IPC: 1.30709 cumulative IPC: 1.32166 (Simulation time: 0 hr 49 min 17 sec) 
Heartbeat CPU 0 instructions: 80000002 cycles: 40058581 heartbeat IPC: 1.33867 cumulative IPC: 1.32728 (Simulation time: 0 hr 57 min 45 sec) 
*** Reached end of trace for Core: 0 Repeating trace: /home/sankara2004/240C/hw1/ChampSim_2/ChampSim/ipc1_public/server_029.champsimtrace.xz
Heartbeat CPU 0 instructions: 90000000 cycles: 47429544 heartbeat IPC: 1.35667 cumulative IPC: 1.33451 (Simulation time: 1 hr 6 min 1 sec) 
Heartbeat CPU 0 instructions: 100000003 cycles: 54793801 heartbeat IPC: 1.35791 cumulative IPC: 1.33912 (Simulation time: 1 hr 14 min 3 sec) 
Finished CPU 0 instructions: 50000003 cycles: 37337826 cumulative IPC: 1.33912 (Simulation time: 1 hr 14 min 3 sec) 

ChampSim completed all CPUs

Region of Interest Statistics

CPU 0 cumulative IPC: 1.33912 instructions: 50000003 cycles: 37337826
L1D TOTAL     ACCESS:   19056097  HIT:   16959823  MISS:    2096274
L1D LOAD      ACCESS:    6730415  HIT:    5664145  MISS:    1066270
L1D RFO       ACCESS:    6113037  HIT:    5827537  MISS:     285500
L1D PREFETCH  ACCESS:    6212645  HIT:    5468141  MISS:     744504
L1D WRITEBACK ACCESS:          0  HIT:          0  MISS:          0
L1D PREFETCH  REQUESTED:    6791306  ISSUED:    6684145  USEFUL:     174542  USELESS:     569952
L1D AVERAGE MISS LATENCY: 21.1006 cycles
L1I TOTAL     ACCESS:   29205893  HIT:   25757648  MISS:    3448245
L1I LOAD      ACCESS:    9793022  HIT:    9743074  MISS:      49948
L1I RFO       ACCESS:          0  HIT:          0  MISS:          0
L1I PREFETCH  ACCESS:   19412871  HIT:   16014574  MISS:    3398297
L1I WRITEBACK ACCESS:          0  HIT:          0  MISS:          0
L1I PREFETCH  REQUESTED:   24688252  ISSUED:   24688252  USEFUL:    2898440  USELESS:     499872
L1I AVERAGE MISS LATENCY: 18.2762 cycles
L2C TOTAL     ACCESS:    7834930  HIT:    7196858  MISS:     638072
L2C LOAD      ACCESS:     939335  HIT:     808048  MISS:     131287
L2C RFO       ACCESS:     283550  HIT:     237960  MISS:      45590
L2C PREFETCH  ACCESS:    6001525  HIT:    5541483  MISS:     460042
L2C WRITEBACK ACCESS:     610520  HIT:     609367  MISS:       1153
L2C PREFETCH  REQUESTED:    6831023  ISSUED:    6802570  USEFUL:      10580  USELESS:     448675
L2C AVERAGE MISS LATENCY: 43.6408 cycles
LLC TOTAL     ACCESS:    2646190  HIT:    2562124  MISS:      84066
LLC LOAD      ACCESS:     131188  HIT:     113911  MISS:      17277
LLC RFO       ACCESS:      45586  HIT:      41845  MISS:       3741
LLC PREFETCH  ACCESS:    2374804  HIT:    2312491  MISS:      62313
LLC WRITEBACK ACCESS:      94612  HIT:      93877  MISS:        735
LLC PREFETCH  REQUESTED:          0  ISSUED:          0  USEFUL:       2660  USELESS:      59588
LLC AVERAGE MISS LATENCY: 161.867 cycles
Major fault: 0 Minor fault: 5920
CPU 0 L1I EPI prefetcher final stats
CPU 0 L1D next line prefetcher final stats

DRAM Statistics
 CHANNEL 0
 RQ ROW_BUFFER_HIT:      22976  ROW_BUFFER_MISS:      60340
 DBUS_CONGESTED:      34557
 WQ ROW_BUFFER_HIT:        608  ROW_BUFFER_MISS:       4285  FULL:          0

 AVG_CONGESTED_CYCLE: 5

CPU 0 Branch Prediction Accuracy: 99.7245% MPKI: 0.51862 Average ROB Occupancy at Mispredict: 147.071

Branch types
NOT_BRANCH: 40586621 81.1732%
BRANCH_DIRECT_JUMP: 525211 1.05042%
BRANCH_INDIRECT: 166359 0.332718%
BRANCH_CONDITIONAL: 6373091 12.7462%
BRANCH_DIRECT_CALL: 989262 1.97852%
BRANCH_INDIRECT_CALL: 184984 0.369968%
BRANCH_RETURN: 1174250 2.3485%
BRANCH_OTHER: 0 0%

