Initialize SIGNATURE TABLE
ST_SET: 1
ST_WAY: 256
ST_TAG_BIT: 16
ST_TAG_MASK: ffff

Initialize PATTERN TABLE
PT_SET: 512
PT_WAY: 4
SIG_DELTA_BIT: 7
C_SIG_BIT: 4
C_DELTA_BIT: 4

Initialize PREFETCH FILTER
FILTER_SET: 1024

*** ChampSim Multicore Out-of-Order Simulator ***

Warmup Instructions: 50000000
Simulation Instructions: 50000000
Number of CPUs: 1
LLC sets: 2048
LLC ways: 16
Off-chip DRAM Size: 4096 MB Channels: 1 Width: 64-bit Data Rate: 3200 MT/s

CPU 0 runs /home/sankara2004/240C/hw1/ChampSim_2/ChampSim/ipc1_public/server_036.champsimtrace.xz
CPU 0 EPI prefetcher
CPU 0 L1D next line prefetcher
Heartbeat CPU 0 instructions: 10000000 cycles: 3459001 heartbeat IPC: 2.89101 cumulative IPC: 2.89101 (Simulation time: 0 hr 0 min 37 sec) 
Heartbeat CPU 0 instructions: 20000000 cycles: 6924791 heartbeat IPC: 2.88534 cumulative IPC: 2.88817 (Simulation time: 0 hr 1 min 14 sec) 
Heartbeat CPU 0 instructions: 30000003 cycles: 10433034 heartbeat IPC: 2.85043 cumulative IPC: 2.87548 (Simulation time: 0 hr 1 min 51 sec) 
Heartbeat CPU 0 instructions: 40000000 cycles: 13895540 heartbeat IPC: 2.88808 cumulative IPC: 2.87862 (Simulation time: 0 hr 2 min 29 sec) 
Heartbeat CPU 0 instructions: 50000002 cycles: 17357242 heartbeat IPC: 2.88875 cumulative IPC: 2.88064 (Simulation time: 0 hr 3 min 7 sec) 

Warmup complete CPU 0 instructions: 50000002 cycles: 17357242 (Simulation time: 0 hr 3 min 7 sec) 

Heartbeat CPU 0 instructions: 60000000 cycles: 22953720 heartbeat IPC: 1.78684 cumulative IPC: 1.78684 (Simulation time: 0 hr 3 min 47 sec) 
Heartbeat CPU 0 instructions: 70000001 cycles: 28505078 heartbeat IPC: 1.80136 cumulative IPC: 1.79407 (Simulation time: 0 hr 4 min 28 sec) 
Heartbeat CPU 0 instructions: 80000001 cycles: 34078232 heartbeat IPC: 1.79432 cumulative IPC: 1.79415 (Simulation time: 0 hr 5 min 7 sec) 
Heartbeat CPU 0 instructions: 90000002 cycles: 39633651 heartbeat IPC: 1.80004 cumulative IPC: 1.79562 (Simulation time: 0 hr 5 min 48 sec) 
Heartbeat CPU 0 instructions: 100000001 cycles: 45175012 heartbeat IPC: 1.80461 cumulative IPC: 1.79741 (Simulation time: 0 hr 6 min 29 sec) 
Finished CPU 0 instructions: 50000003 cycles: 27817771 cumulative IPC: 1.79741 (Simulation time: 0 hr 6 min 29 sec) 

ChampSim completed all CPUs

Region of Interest Statistics

CPU 0 cumulative IPC: 1.79741 instructions: 50000003 cycles: 27817771
L1D TOTAL     ACCESS:   20457173  HIT:   20396962  MISS:      60211
L1D LOAD      ACCESS:    6659915  HIT:    6625085  MISS:      34830
L1D RFO       ACCESS:    7343124  HIT:    7335901  MISS:       7223
L1D PREFETCH  ACCESS:    6454134  HIT:    6435976  MISS:      18158
L1D WRITEBACK ACCESS:          0  HIT:          0  MISS:          0
L1D PREFETCH  REQUESTED:    6660888  ISSUED:    6485072  USEFUL:       5463  USELESS:      12696
L1D AVERAGE MISS LATENCY: 17.8076 cycles
L1I TOTAL     ACCESS:   35315832  HIT:   31148875  MISS:    4166957
L1I LOAD      ACCESS:    8926002  HIT:    8912903  MISS:      13099
L1I RFO       ACCESS:          0  HIT:          0  MISS:          0
L1I PREFETCH  ACCESS:   26389830  HIT:   22235972  MISS:    4153858
L1I WRITEBACK ACCESS:          0  HIT:          0  MISS:          0
L1I PREFETCH  REQUESTED:   31255578  ISSUED:   31255578  USEFUL:    3671294  USELESS:     482566
L1I AVERAGE MISS LATENCY: 14.6659 cycles
L2C TOTAL     ACCESS:    6512764  HIT:    6510546  MISS:       2218
L2C LOAD      ACCESS:      46655  HIT:      46348  MISS:        307
L2C RFO       ACCESS:       7215  HIT:       7157  MISS:         58
L2C PREFETCH  ACCESS:    6443266  HIT:    6441444  MISS:       1822
L2C WRITEBACK ACCESS:      15628  HIT:      15597  MISS:         31
L2C PREFETCH  REQUESTED:    5740025  ISSUED:    5739948  USEFUL:        153  USELESS:        994
L2C AVERAGE MISS LATENCY: 170.35 cycles
LLC TOTAL     ACCESS:     574007  HIT:     571451  MISS:       2556
LLC LOAD      ACCESS:        307  HIT:         98  MISS:        209
LLC RFO       ACCESS:         58  HIT:         28  MISS:         30
LLC PREFETCH  ACCESS:     572711  HIT:     570402  MISS:       2309
LLC WRITEBACK ACCESS:        931  HIT:        923  MISS:          8
LLC PREFETCH  REQUESTED:          0  ISSUED:          0  USEFUL:         42  USELESS:        489
LLC AVERAGE MISS LATENCY: 301.887 cycles
Major fault: 0 Minor fault: 1927
CPU 0 L1I EPI prefetcher final stats
CPU 0 L1D next line prefetcher final stats

DRAM Statistics
 CHANNEL 0
 RQ ROW_BUFFER_HIT:        574  ROW_BUFFER_MISS:       1974
 DBUS_CONGESTED:       1726
 WQ ROW_BUFFER_HIT:        275  ROW_BUFFER_MISS:       1483  FULL:          0

 AVG_CONGESTED_CYCLE: 6

CPU 0 Branch Prediction Accuracy: 99.8717% MPKI: 0.21174 Average ROB Occupancy at Mispredict: 232.94

Branch types
NOT_BRANCH: 41748435 83.4969%
BRANCH_DIRECT_JUMP: 468563 0.937126%
BRANCH_INDIRECT: 0 0%
BRANCH_CONDITIONAL: 5599754 11.1995%
BRANCH_DIRECT_CALL: 885105 1.77021%
BRANCH_INDIRECT_CALL: 206338 0.412676%
BRANCH_RETURN: 1091467 2.18293%
BRANCH_OTHER: 0 0%

