Initialize SIGNATURE TABLE
ST_SET: 1
ST_WAY: 256
ST_TAG_BIT: 16
ST_TAG_MASK: ffff

Initialize PATTERN TABLE
PT_SET: 512
PT_WAY: 4
SIG_DELTA_BIT: 7
C_SIG_BIT: 4
C_DELTA_BIT: 4

Initialize PREFETCH FILTER
FILTER_SET: 1024

*** ChampSim Multicore Out-of-Order Simulator ***

Warmup Instructions: 50000000
Simulation Instructions: 50000000
Number of CPUs: 1
LLC sets: 2048
LLC ways: 16
Off-chip DRAM Size: 4096 MB Channels: 1 Width: 64-bit Data Rate: 3200 MT/s

CPU 0 runs /home/sankara2004/240C/hw1/ChampSim_2/ChampSim/ipc1_public/server_027.champsimtrace.xz
CPU 0 EPI prefetcher
CPU 0 L1D next line prefetcher
Heartbeat CPU 0 instructions: 10000001 cycles: 3525929 heartbeat IPC: 2.83613 cumulative IPC: 2.83613 (Simulation time: 0 hr 6 min 30 sec) 
Heartbeat CPU 0 instructions: 20000001 cycles: 7056489 heartbeat IPC: 2.83241 cumulative IPC: 2.83427 (Simulation time: 0 hr 13 min 2 sec) 
Heartbeat CPU 0 instructions: 30000002 cycles: 10581732 heartbeat IPC: 2.83668 cumulative IPC: 2.83507 (Simulation time: 0 hr 19 min 41 sec) 
Heartbeat CPU 0 instructions: 40000000 cycles: 14112627 heartbeat IPC: 2.83214 cumulative IPC: 2.83434 (Simulation time: 0 hr 26 min 15 sec) 
Heartbeat CPU 0 instructions: 50000001 cycles: 17637181 heartbeat IPC: 2.83724 cumulative IPC: 2.83492 (Simulation time: 0 hr 32 min 48 sec) 

Warmup complete CPU 0 instructions: 50000001 cycles: 17637181 (Simulation time: 0 hr 32 min 48 sec) 

Heartbeat CPU 0 instructions: 60000002 cycles: 24473562 heartbeat IPC: 1.46276 cumulative IPC: 1.46276 (Simulation time: 0 hr 41 min 9 sec) 
Heartbeat CPU 0 instructions: 70000003 cycles: 31259123 heartbeat IPC: 1.47372 cumulative IPC: 1.46822 (Simulation time: 0 hr 49 min 38 sec) 
Heartbeat CPU 0 instructions: 80000002 cycles: 38064508 heartbeat IPC: 1.46942 cumulative IPC: 1.46862 (Simulation time: 0 hr 58 min 37 sec) 
Heartbeat CPU 0 instructions: 90000001 cycles: 44934216 heartbeat IPC: 1.45567 cumulative IPC: 1.46536 (Simulation time: 1 hr 7 min 8 sec) 
Heartbeat CPU 0 instructions: 100000002 cycles: 51688601 heartbeat IPC: 1.48052 cumulative IPC: 1.46837 (Simulation time: 1 hr 15 min 22 sec) 
Finished CPU 0 instructions: 50000001 cycles: 34051420 cumulative IPC: 1.46837 (Simulation time: 1 hr 15 min 22 sec) 

ChampSim completed all CPUs

Region of Interest Statistics

CPU 0 cumulative IPC: 1.46837 instructions: 50000001 cycles: 34051420
L1D TOTAL     ACCESS:   19888272  HIT:   18286675  MISS:    1601597
L1D LOAD      ACCESS:    6942919  HIT:    6250901  MISS:     692018
L1D RFO       ACCESS:    6288904  HIT:    6003067  MISS:     285837
L1D PREFETCH  ACCESS:    6656449  HIT:    6032707  MISS:     623742
L1D WRITEBACK ACCESS:          0  HIT:          0  MISS:          0
L1D PREFETCH  REQUESTED:    6988585  ISSUED:    6861867  USEFUL:     149373  USELESS:     474379
L1D AVERAGE MISS LATENCY: 23.6096 cycles
L1I TOTAL     ACCESS:   29407920  HIT:   25850520  MISS:    3557400
L1I LOAD      ACCESS:    9472908  HIT:    9416928  MISS:      55980
L1I RFO       ACCESS:          0  HIT:          0  MISS:          0
L1I PREFETCH  ACCESS:   19935012  HIT:   16433592  MISS:    3501420
L1I WRITEBACK ACCESS:          0  HIT:          0  MISS:          0
L1I PREFETCH  REQUESTED:   24884991  ISSUED:   24884991  USEFUL:    2781082  USELESS:     720396
L1I AVERAGE MISS LATENCY: 19.0836 cycles
L2C TOTAL     ACCESS:    6996111  HIT:    6192659  MISS:     803452
L2C LOAD      ACCESS:     684925  HIT:     556796  MISS:     128129
L2C RFO       ACCESS:     283707  HIT:     196876  MISS:      86831
L2C PREFETCH  ACCESS:    5468165  HIT:    4884076  MISS:     584089
L2C WRITEBACK ACCESS:     559314  HIT:     554911  MISS:       4403
L2C PREFETCH  REQUESTED:    5606243  ISSUED:    5595156  USEFUL:      12632  USELESS:     570781
L2C AVERAGE MISS LATENCY: 38.3979 cycles
LLC TOTAL     ACCESS:    2423586  HIT:    2386503  MISS:      37083
LLC LOAD      ACCESS:     127909  HIT:     124341  MISS:       3568
LLC RFO       ACCESS:      86829  HIT:      72941  MISS:      13888
LLC PREFETCH  ACCESS:    2064754  HIT:    2045299  MISS:      19455
LLC WRITEBACK ACCESS:     144094  HIT:     143922  MISS:        172
LLC PREFETCH  REQUESTED:          0  ISSUED:          0  USEFUL:       1338  USELESS:      16207
LLC AVERAGE MISS LATENCY: 182.215 cycles
Major fault: 0 Minor fault: 2479
CPU 0 L1I EPI prefetcher final stats
CPU 0 L1D next line prefetcher final stats

DRAM Statistics
 CHANNEL 0
 RQ ROW_BUFFER_HIT:      11437  ROW_BUFFER_MISS:      25469
 DBUS_CONGESTED:      23865
 WQ ROW_BUFFER_HIT:       1850  ROW_BUFFER_MISS:      15516  FULL:          0

 AVG_CONGESTED_CYCLE: 6

CPU 0 Branch Prediction Accuracy: 99.8082% MPKI: 0.35064 Average ROB Occupancy at Mispredict: 194.609

Branch types
NOT_BRANCH: 40857507 81.715%
BRANCH_DIRECT_JUMP: 526635 1.05327%
BRANCH_INDIRECT: 205902 0.411804%
BRANCH_CONDITIONAL: 6184050 12.3681%
BRANCH_DIRECT_CALL: 938468 1.87694%
BRANCH_INDIRECT_CALL: 174486 0.348972%
BRANCH_RETURN: 1112959 2.22592%
BRANCH_OTHER: 0 0%

