Initialize SIGNATURE TABLE
ST_SET: 1
ST_WAY: 256
ST_TAG_BIT: 16
ST_TAG_MASK: ffff

Initialize PATTERN TABLE
PT_SET: 512
PT_WAY: 4
SIG_DELTA_BIT: 7
C_SIG_BIT: 4
C_DELTA_BIT: 4

Initialize PREFETCH FILTER
FILTER_SET: 1024

*** ChampSim Multicore Out-of-Order Simulator ***

Warmup Instructions: 50000000
Simulation Instructions: 50000000
Number of CPUs: 1
LLC sets: 2048
LLC ways: 16
Off-chip DRAM Size: 4096 MB Channels: 1 Width: 64-bit Data Rate: 3200 MT/s

CPU 0 runs /home/sankara2004/240C/hw1/ChampSim_2/ChampSim/ipc1_public/server_039.champsimtrace.xz
CPU 0 EPI prefetcher
CPU 0 L1D next line prefetcher
Heartbeat CPU 0 instructions: 10000003 cycles: 3451543 heartbeat IPC: 2.89726 cumulative IPC: 2.89726 (Simulation time: 0 hr 6 min 28 sec) 
Heartbeat CPU 0 instructions: 20000002 cycles: 6896135 heartbeat IPC: 2.9031 cumulative IPC: 2.90018 (Simulation time: 0 hr 12 min 56 sec) 
Heartbeat CPU 0 instructions: 30000001 cycles: 10342585 heartbeat IPC: 2.90154 cumulative IPC: 2.90063 (Simulation time: 0 hr 19 min 31 sec) 
Heartbeat CPU 0 instructions: 40000002 cycles: 13784451 heartbeat IPC: 2.9054 cumulative IPC: 2.90182 (Simulation time: 0 hr 26 min 0 sec) 
Heartbeat CPU 0 instructions: 50000001 cycles: 17225739 heartbeat IPC: 2.90589 cumulative IPC: 2.90263 (Simulation time: 0 hr 32 min 28 sec) 

Warmup complete CPU 0 instructions: 50000001 cycles: 17225739 (Simulation time: 0 hr 32 min 28 sec) 

Heartbeat CPU 0 instructions: 60000000 cycles: 23011890 heartbeat IPC: 1.72826 cumulative IPC: 1.72826 (Simulation time: 0 hr 40 min 47 sec) 
Heartbeat CPU 0 instructions: 70000000 cycles: 28790114 heartbeat IPC: 1.73064 cumulative IPC: 1.72945 (Simulation time: 0 hr 49 min 17 sec) 
Heartbeat CPU 0 instructions: 80000000 cycles: 34564110 heartbeat IPC: 1.7319 cumulative IPC: 1.73027 (Simulation time: 0 hr 58 min 16 sec) 
Heartbeat CPU 0 instructions: 90000001 cycles: 40338259 heartbeat IPC: 1.73186 cumulative IPC: 1.73066 (Simulation time: 1 hr 6 min 45 sec) 
Heartbeat CPU 0 instructions: 100000002 cycles: 46119136 heartbeat IPC: 1.72984 cumulative IPC: 1.7305 (Simulation time: 1 hr 15 min 8 sec) 
Finished CPU 0 instructions: 50000001 cycles: 28893397 cumulative IPC: 1.7305 (Simulation time: 1 hr 15 min 8 sec) 

ChampSim completed all CPUs

Region of Interest Statistics

CPU 0 cumulative IPC: 1.7305 instructions: 50000001 cycles: 28893397
L1D TOTAL     ACCESS:   19892930  HIT:   19398326  MISS:     494604
L1D LOAD      ACCESS:    6495731  HIT:    6274139  MISS:     221592
L1D RFO       ACCESS:    7089595  HIT:    7022757  MISS:      66838
L1D PREFETCH  ACCESS:    6307604  HIT:    6101430  MISS:     206174
L1D WRITEBACK ACCESS:          0  HIT:          0  MISS:          0
L1D PREFETCH  REQUESTED:    6511521  ISSUED:    6379721  USEFUL:      50136  USELESS:     156042
L1D AVERAGE MISS LATENCY: 15.1018 cycles
L1I TOTAL     ACCESS:   39082805  HIT:   34405680  MISS:    4677125
L1I LOAD      ACCESS:    9366526  HIT:    9348875  MISS:      17651
L1I RFO       ACCESS:          0  HIT:          0  MISS:          0
L1I PREFETCH  ACCESS:   29716279  HIT:   25056805  MISS:    4659474
L1I WRITEBACK ACCESS:          0  HIT:          0  MISS:          0
L1I PREFETCH  REQUESTED:   35984571  ISSUED:   35984571  USEFUL:    4046275  USELESS:     613231
L1I AVERAGE MISS LATENCY: 14.8032 cycles
L2C TOTAL     ACCESS:    7810968  HIT:    7810922  MISS:         46
L2C LOAD      ACCESS:     228630  HIT:     228628  MISS:          2
L2C RFO       ACCESS:      66751  HIT:      66751  MISS:          0
L2C PREFETCH  ACCESS:    7335546  HIT:    7335502  MISS:         44
L2C WRITEBACK ACCESS:     180041  HIT:     180041  MISS:          0
L2C PREFETCH  REQUESTED:    5900370  ISSUED:    5896875  USEFUL:          3  USELESS:          4
L2C AVERAGE MISS LATENCY: 56.3478 cycles
LLC TOTAL     ACCESS:     673762  HIT:     673459  MISS:        303
LLC LOAD      ACCESS:          2  HIT:          1  MISS:          1
LLC RFO       ACCESS:          0  HIT:          0  MISS:          0
LLC PREFETCH  ACCESS:     673759  HIT:     673457  MISS:        302
LLC WRITEBACK ACCESS:          1  HIT:          1  MISS:          0
LLC PREFETCH  REQUESTED:          0  ISSUED:          0  USEFUL:          0  USELESS:          0
LLC AVERAGE MISS LATENCY: 181.941 cycles
Major fault: 0 Minor fault: 359
CPU 0 L1I EPI prefetcher final stats
CPU 0 L1D next line prefetcher final stats

DRAM Statistics
 CHANNEL 0
 RQ ROW_BUFFER_HIT:         82  ROW_BUFFER_MISS:        221
 DBUS_CONGESTED:         66
 WQ ROW_BUFFER_HIT:          0  ROW_BUFFER_MISS:          0  FULL:          0

 AVG_CONGESTED_CYCLE: 5

CPU 0 Branch Prediction Accuracy: 99.9091% MPKI: 0.1547 Average ROB Occupancy at Mispredict: 296.727

Branch types
NOT_BRANCH: 41495033 82.9901%
BRANCH_DIRECT_JUMP: 491309 0.982618%
BRANCH_INDIRECT: 0 0%
BRANCH_CONDITIONAL: 5595262 11.1905%
BRANCH_DIRECT_CALL: 1028409 2.05682%
BRANCH_INDIRECT_CALL: 180756 0.361512%
BRANCH_RETURN: 1209170 2.41834%
BRANCH_OTHER: 0 0%

