Initialize SIGNATURE TABLE
ST_SET: 1
ST_WAY: 256
ST_TAG_BIT: 16
ST_TAG_MASK: ffff

Initialize PATTERN TABLE
PT_SET: 512
PT_WAY: 4
SIG_DELTA_BIT: 7
C_SIG_BIT: 4
C_DELTA_BIT: 4

Initialize PREFETCH FILTER
FILTER_SET: 1024

*** ChampSim Multicore Out-of-Order Simulator ***

Warmup Instructions: 50000000
Simulation Instructions: 50000000
Number of CPUs: 1
LLC sets: 2048
LLC ways: 16
Off-chip DRAM Size: 4096 MB Channels: 1 Width: 64-bit Data Rate: 3200 MT/s

CPU 0 runs /home/sankara2004/240C/hw1/ChampSim_2/ChampSim/ipc1_public/server_003.champsimtrace.xz
CPU 0 EPI prefetcher
CPU 0 L1D next line prefetcher
Heartbeat CPU 0 instructions: 10000002 cycles: 3223858 heartbeat IPC: 3.10187 cumulative IPC: 3.10187 (Simulation time: 0 hr 6 min 19 sec) 
Heartbeat CPU 0 instructions: 20000000 cycles: 6543005 heartbeat IPC: 3.01282 cumulative IPC: 3.0567 (Simulation time: 0 hr 12 min 52 sec) 
Heartbeat CPU 0 instructions: 30000000 cycles: 9753399 heartbeat IPC: 3.11488 cumulative IPC: 3.07585 (Simulation time: 0 hr 19 min 32 sec) 
Heartbeat CPU 0 instructions: 40000001 cycles: 13169894 heartbeat IPC: 2.92698 cumulative IPC: 3.03723 (Simulation time: 0 hr 26 min 8 sec) 
Heartbeat CPU 0 instructions: 50000003 cycles: 16888901 heartbeat IPC: 2.68889 cumulative IPC: 2.96052 (Simulation time: 0 hr 32 min 42 sec) 

Warmup complete CPU 0 instructions: 50000003 cycles: 16888901 (Simulation time: 0 hr 32 min 42 sec) 

Heartbeat CPU 0 instructions: 60000000 cycles: 25613496 heartbeat IPC: 1.14618 cumulative IPC: 1.14618 (Simulation time: 0 hr 41 min 0 sec) 
Heartbeat CPU 0 instructions: 70000003 cycles: 34564698 heartbeat IPC: 1.11717 cumulative IPC: 1.13149 (Simulation time: 0 hr 49 min 28 sec) 
Heartbeat CPU 0 instructions: 80000000 cycles: 44359045 heartbeat IPC: 1.021 cumulative IPC: 1.09209 (Simulation time: 0 hr 58 min 25 sec) 
Heartbeat CPU 0 instructions: 90000001 cycles: 54179763 heartbeat IPC: 1.01826 cumulative IPC: 1.07265 (Simulation time: 1 hr 6 min 54 sec) 
Heartbeat CPU 0 instructions: 100000003 cycles: 64463765 heartbeat IPC: 0.972384 cumulative IPC: 1.05098 (Simulation time: 1 hr 15 min 16 sec) 
Finished CPU 0 instructions: 50000000 cycles: 47574864 cumulative IPC: 1.05098 (Simulation time: 1 hr 15 min 16 sec) 

ChampSim completed all CPUs

Region of Interest Statistics

CPU 0 cumulative IPC: 1.05098 instructions: 50000000 cycles: 47574864
L1D TOTAL     ACCESS:   19931662  HIT:   18790907  MISS:    1140755
L1D LOAD      ACCESS:    7821791  HIT:    7291005  MISS:     530786
L1D RFO       ACCESS:    4549478  HIT:    4432134  MISS:     117344
L1D PREFETCH  ACCESS:    7560393  HIT:    7067768  MISS:     492625
L1D WRITEBACK ACCESS:          0  HIT:          0  MISS:          0
L1D PREFETCH  REQUESTED:    7881439  ISSUED:    7789916  USEFUL:     154414  USELESS:     338170
L1D AVERAGE MISS LATENCY: 55.5618 cycles
L1I TOTAL     ACCESS:   36375896  HIT:   34877702  MISS:    1498194
L1I LOAD      ACCESS:    9300566  HIT:    9231562  MISS:      69004
L1I RFO       ACCESS:          0  HIT:          0  MISS:          0
L1I PREFETCH  ACCESS:   27075330  HIT:   25646140  MISS:    1429190
L1I WRITEBACK ACCESS:          0  HIT:          0  MISS:          0
L1I PREFETCH  REQUESTED:   35215442  ISSUED:   35215442  USEFUL:     914828  USELESS:     514425
L1I AVERAGE MISS LATENCY: 37.5881 cycles
L2C TOTAL     ACCESS:    3524685  HIT:    2529712  MISS:     994973
L2C LOAD      ACCESS:     550419  HIT:     307514  MISS:     242905
L2C RFO       ACCESS:     114676  HIT:      40176  MISS:      74500
L2C PREFETCH  ACCESS:    2575336  HIT:    1898879  MISS:     676457
L2C WRITEBACK ACCESS:     284254  HIT:     283143  MISS:       1111
L2C PREFETCH  REQUESTED:    2845305  ISSUED:    2841563  USEFUL:      28222  USELESS:     645536
L2C AVERAGE MISS LATENCY: 82.9339 cycles
LLC TOTAL     ACCESS:    1893018  HIT:    1516955  MISS:     376063
LLC LOAD      ACCESS:     242368  HIT:     177273  MISS:      65095
LLC RFO       ACCESS:      74497  HIT:      32253  MISS:      42244
LLC PREFETCH  ACCESS:    1409886  HIT:    1142449  MISS:     267437
LLC WRITEBACK ACCESS:     166267  HIT:     164980  MISS:       1287
LLC PREFETCH  REQUESTED:          0  ISSUED:          0  USEFUL:      30755  USELESS:     225074
LLC AVERAGE MISS LATENCY: 194.197 cycles
Major fault: 0 Minor fault: 7778
CPU 0 L1I EPI prefetcher final stats
CPU 0 L1D next line prefetcher final stats

DRAM Statistics
 CHANNEL 0
 RQ ROW_BUFFER_HIT:      85742  ROW_BUFFER_MISS:     288983
 DBUS_CONGESTED:     191245
 WQ ROW_BUFFER_HIT:      22618  ROW_BUFFER_MISS:      80950  FULL:          0

 AVG_CONGESTED_CYCLE: 5

CPU 0 Branch Prediction Accuracy: 95.439% MPKI: 9.02702 Average ROB Occupancy at Mispredict: 70.3863

Branch types
NOT_BRANCH: 40104066 80.2081%
BRANCH_DIRECT_JUMP: 497928 0.995856%
BRANCH_INDIRECT: 130587 0.261174%
BRANCH_CONDITIONAL: 7219014 14.438%
BRANCH_DIRECT_CALL: 625807 1.25161%
BRANCH_INDIRECT_CALL: 389787 0.779574%
BRANCH_RETURN: 1032747 2.06549%
BRANCH_OTHER: 0 0%

