Initialize SIGNATURE TABLE
ST_SET: 1
ST_WAY: 256
ST_TAG_BIT: 16
ST_TAG_MASK: ffff

Initialize PATTERN TABLE
PT_SET: 512
PT_WAY: 4
SIG_DELTA_BIT: 7
C_SIG_BIT: 4
C_DELTA_BIT: 4

Initialize PREFETCH FILTER
FILTER_SET: 1024

*** ChampSim Multicore Out-of-Order Simulator ***

Warmup Instructions: 50000000
Simulation Instructions: 50000000
Number of CPUs: 1
LLC sets: 2048
LLC ways: 16
Off-chip DRAM Size: 4096 MB Channels: 1 Width: 64-bit Data Rate: 3200 MT/s

CPU 0 runs /home/sankara2004/240C/hw1/ChampSim_2/ChampSim/ipc1_public/server_031.champsimtrace.xz
CPU 0 EPI prefetcher
CPU 0 L1D next line prefetcher
Heartbeat CPU 0 instructions: 10000003 cycles: 3519408 heartbeat IPC: 2.84139 cumulative IPC: 2.84139 (Simulation time: 0 hr 6 min 30 sec) 
Heartbeat CPU 0 instructions: 20000002 cycles: 7036874 heartbeat IPC: 2.84296 cumulative IPC: 2.84217 (Simulation time: 0 hr 13 min 3 sec) 
Heartbeat CPU 0 instructions: 30000002 cycles: 10555048 heartbeat IPC: 2.84238 cumulative IPC: 2.84224 (Simulation time: 0 hr 19 min 43 sec) 
Heartbeat CPU 0 instructions: 40000003 cycles: 14069857 heartbeat IPC: 2.84511 cumulative IPC: 2.84296 (Simulation time: 0 hr 26 min 19 sec) 
Heartbeat CPU 0 instructions: 50000001 cycles: 17586778 heartbeat IPC: 2.8434 cumulative IPC: 2.84304 (Simulation time: 0 hr 32 min 55 sec) 

Warmup complete CPU 0 instructions: 50000001 cycles: 17586778 (Simulation time: 0 hr 32 min 55 sec) 

Heartbeat CPU 0 instructions: 60000001 cycles: 25033036 heartbeat IPC: 1.34296 cumulative IPC: 1.34296 (Simulation time: 0 hr 41 min 17 sec) 
Heartbeat CPU 0 instructions: 70000002 cycles: 32544107 heartbeat IPC: 1.33137 cumulative IPC: 1.33714 (Simulation time: 0 hr 49 min 46 sec) 
*** Reached end of trace for Core: 0 Repeating trace: /home/sankara2004/240C/hw1/ChampSim_2/ChampSim/ipc1_public/server_031.champsimtrace.xz
Heartbeat CPU 0 instructions: 80000000 cycles: 39923840 heartbeat IPC: 1.35506 cumulative IPC: 1.34306 (Simulation time: 0 hr 58 min 50 sec) 
Heartbeat CPU 0 instructions: 90000003 cycles: 47316432 heartbeat IPC: 1.35271 cumulative IPC: 1.34546 (Simulation time: 1 hr 7 min 20 sec) 
Heartbeat CPU 0 instructions: 100000000 cycles: 54669054 heartbeat IPC: 1.36006 cumulative IPC: 1.34835 (Simulation time: 1 hr 15 min 24 sec) 
Finished CPU 0 instructions: 50000000 cycles: 37082278 cumulative IPC: 1.34835 (Simulation time: 1 hr 15 min 24 sec) 

ChampSim completed all CPUs

Region of Interest Statistics

CPU 0 cumulative IPC: 1.34835 instructions: 50000000 cycles: 37082278
L1D TOTAL     ACCESS:   19507056  HIT:   17602759  MISS:    1904297
L1D LOAD      ACCESS:    6762181  HIT:    5888202  MISS:     873979
L1D RFO       ACCESS:    6325366  HIT:    6034026  MISS:     291340
L1D PREFETCH  ACCESS:    6419509  HIT:    5680531  MISS:     738978
L1D WRITEBACK ACCESS:          0  HIT:          0  MISS:          0
L1D PREFETCH  REQUESTED:    6822994  ISSUED:    6709084  USEFUL:     173291  USELESS:     565691
L1D AVERAGE MISS LATENCY: 22.4294 cycles
L1I TOTAL     ACCESS:   30514726  HIT:   26911647  MISS:    3603079
L1I LOAD      ACCESS:    9716979  HIT:    9680268  MISS:      36711
L1I RFO       ACCESS:          0  HIT:          0  MISS:          0
L1I PREFETCH  ACCESS:   20797747  HIT:   17231379  MISS:    3566368
L1I WRITEBACK ACCESS:          0  HIT:          0  MISS:          0
L1I PREFETCH  REQUESTED:   25785412  ISSUED:   25785412  USEFUL:    3011723  USELESS:     554672
L1I AVERAGE MISS LATENCY: 18.2836 cycles
L2C TOTAL     ACCESS:    7738282  HIT:    7119312  MISS:     618970
L2C LOAD      ACCESS:     838229  HIT:     722938  MISS:     115291
L2C RFO       ACCESS:     289235  HIT:     247722  MISS:      41513
L2C PREFETCH  ACCESS:    5993890  HIT:    5533182  MISS:     460708
L2C WRITEBACK ACCESS:     616928  HIT:     615470  MISS:       1458
L2C PREFETCH  REQUESTED:    6491324  ISSUED:    6466520  USEFUL:       5600  USELESS:     454295
L2C AVERAGE MISS LATENCY: 45.0082 cycles
LLC TOTAL     ACCESS:    2549295  HIT:    2463488  MISS:      85807
LLC LOAD      ACCESS:     115052  HIT:      96326  MISS:      18726
LLC RFO       ACCESS:      41509  HIT:      37293  MISS:       4216
LLC PREFETCH  ACCESS:    2316048  HIT:    2253757  MISS:      62291
LLC WRITEBACK ACCESS:      76686  HIT:      76112  MISS:        574
LLC PREFETCH  REQUESTED:          0  ISSUED:          0  USEFUL:       2728  USELESS:      58085
LLC AVERAGE MISS LATENCY: 160.056 cycles
Major fault: 0 Minor fault: 6042
CPU 0 L1I EPI prefetcher final stats
CPU 0 L1D next line prefetcher final stats

DRAM Statistics
 CHANNEL 0
 RQ ROW_BUFFER_HIT:      23928  ROW_BUFFER_MISS:      61304
 DBUS_CONGESTED:      35574
 WQ ROW_BUFFER_HIT:        806  ROW_BUFFER_MISS:       5408  FULL:          0

 AVG_CONGESTED_CYCLE: 5

CPU 0 Branch Prediction Accuracy: 99.6894% MPKI: 0.58048 Average ROB Occupancy at Mispredict: 145.149

Branch types
NOT_BRANCH: 40655644 81.3113%
BRANCH_DIRECT_JUMP: 546483 1.09297%
BRANCH_INDIRECT: 172433 0.344866%
BRANCH_CONDITIONAL: 6207590 12.4152%
BRANCH_DIRECT_CALL: 1018497 2.03699%
BRANCH_INDIRECT_CALL: 190373 0.380746%
BRANCH_RETURN: 1208855 2.41771%
BRANCH_OTHER: 0 0%

