Initialize SIGNATURE TABLE
ST_SET: 1
ST_WAY: 256
ST_TAG_BIT: 16
ST_TAG_MASK: ffff

Initialize PATTERN TABLE
PT_SET: 512
PT_WAY: 4
SIG_DELTA_BIT: 7
C_SIG_BIT: 4
C_DELTA_BIT: 4

Initialize PREFETCH FILTER
FILTER_SET: 1024

*** ChampSim Multicore Out-of-Order Simulator ***

Warmup Instructions: 50000000
Simulation Instructions: 50000000
Number of CPUs: 1
LLC sets: 2048
LLC ways: 16
Off-chip DRAM Size: 4096 MB Channels: 1 Width: 64-bit Data Rate: 3200 MT/s

CPU 0 runs /home/sankara2004/240C/hw1/ChampSim_2/ChampSim/ipc1_public/server_034.champsimtrace.xz
LHT KB: 126.25
SCC KB: 1.56
Total KB: 127.81
CPU 0 L1D next line prefetcher
Heartbeat CPU 0 instructions: 10000000 cycles: 3330099 heartbeat IPC: 3.00291 cumulative IPC: 3.00291 (Simulation time: 0 hr 5 min 52 sec) 
Heartbeat CPU 0 instructions: 20000002 cycles: 6653074 heartbeat IPC: 3.00935 cumulative IPC: 3.00613 (Simulation time: 0 hr 11 min 40 sec) 
Heartbeat CPU 0 instructions: 30000003 cycles: 9984561 heartbeat IPC: 3.00166 cumulative IPC: 3.00464 (Simulation time: 0 hr 17 min 31 sec) 
Heartbeat CPU 0 instructions: 40000001 cycles: 13314327 heartbeat IPC: 3.00321 cumulative IPC: 3.00428 (Simulation time: 0 hr 23 min 18 sec) 
Heartbeat CPU 0 instructions: 50000000 cycles: 16642540 heartbeat IPC: 3.00462 cumulative IPC: 3.00435 (Simulation time: 0 hr 29 min 1 sec) 

Warmup complete CPU 0 instructions: 50000002 cycles: 16642541 (Simulation time: 0 hr 29 min 1 sec) 

Heartbeat CPU 0 instructions: 60000002 cycles: 22620157 heartbeat IPC: 1.67291 cumulative IPC: 1.67291 (Simulation time: 0 hr 36 min 38 sec) 
Heartbeat CPU 0 instructions: 70000003 cycles: 28920680 heartbeat IPC: 1.58717 cumulative IPC: 1.62891 (Simulation time: 0 hr 44 min 24 sec) 
Heartbeat CPU 0 instructions: 80000002 cycles: 34998304 heartbeat IPC: 1.64538 cumulative IPC: 1.63436 (Simulation time: 0 hr 52 min 17 sec) 
Heartbeat CPU 0 instructions: 90000002 cycles: 41071985 heartbeat IPC: 1.64645 cumulative IPC: 1.63737 (Simulation time: 0 hr 59 min 55 sec) 
Heartbeat CPU 0 instructions: 100000002 cycles: 47085979 heartbeat IPC: 1.66279 cumulative IPC: 1.64239 (Simulation time: 1 hr 7 min 21 sec) 
Finished CPU 0 instructions: 50000000 cycles: 30443438 cumulative IPC: 1.64239 (Simulation time: 1 hr 7 min 21 sec) 

ChampSim completed all CPUs

Region of Interest Statistics

CPU 0 cumulative IPC: 1.64239 instructions: 50000000 cycles: 30443438
L1D TOTAL     ACCESS:   18334167  HIT:   16909952  MISS:    1424215
L1D LOAD      ACCESS:    6175253  HIT:    5519492  MISS:     655761
L1D RFO       ACCESS:    6163873  HIT:    6021110  MISS:     142763
L1D PREFETCH  ACCESS:    5995041  HIT:    5369350  MISS:     625691
L1D WRITEBACK ACCESS:          0  HIT:          0  MISS:          0
L1D PREFETCH  REQUESTED:    6210260  ISSUED:    6122136  USEFUL:     141204  USELESS:     484456
L1D AVERAGE MISS LATENCY: 17.3593 cycles
L1I TOTAL     ACCESS:   24757912  HIT:   19584179  MISS:    5173733
L1I LOAD      ACCESS:    9590417  HIT:    9104969  MISS:     485448
L1I RFO       ACCESS:          0  HIT:          0  MISS:          0
L1I PREFETCH  ACCESS:   15167495  HIT:   10479210  MISS:    4688285
L1I WRITEBACK ACCESS:          0  HIT:          0  MISS:          0
L1I PREFETCH  REQUESTED:   17383316  ISSUED:   17383316  USEFUL:    2984843  USELESS:    1703391
L1I AVERAGE MISS LATENCY: 13.4716 cycles
L2C TOTAL     ACCESS:    8764752  HIT:    8669130  MISS:      95622
L2C LOAD      ACCESS:     726604  HIT:     688993  MISS:      37611
L2C RFO       ACCESS:     140910  HIT:     133816  MISS:       7094
L2C PREFETCH  ACCESS:    7546569  HIT:    7496549  MISS:      50020
L2C WRITEBACK ACCESS:     350669  HIT:     349772  MISS:        897
L2C PREFETCH  REQUESTED:    5080438  ISSUED:    5078693  USEFUL:       3030  USELESS:      45968
L2C AVERAGE MISS LATENCY: 38.5021 cycles
LLC TOTAL     ACCESS:    1440602  HIT:    1430375  MISS:      10227
LLC LOAD      ACCESS:      37548  HIT:      35361  MISS:       2187
LLC RFO       ACCESS:       7094  HIT:       6903  MISS:        191
LLC PREFETCH  ACCESS:    1361608  HIT:    1353796  MISS:       7812
LLC WRITEBACK ACCESS:      34352  HIT:      34315  MISS:         37
LLC PREFETCH  REQUESTED:          0  ISSUED:          0  USEFUL:       2638  USELESS:       3126
LLC AVERAGE MISS LATENCY: 141.133 cycles
Major fault: 0 Minor fault: 1182
CPU 0 L1D next line prefetcher final stats

DRAM Statistics
 CHANNEL 0
 RQ ROW_BUFFER_HIT:       3756  ROW_BUFFER_MISS:       6429
 DBUS_CONGESTED:       4408
 WQ ROW_BUFFER_HIT:        576  ROW_BUFFER_MISS:       1932  FULL:          0

 AVG_CONGESTED_CYCLE: 5

CPU 0 Branch Prediction Accuracy: 99.926% MPKI: 0.14472 Average ROB Occupancy at Mispredict: 229.704

Branch types
NOT_BRANCH: 40221081 80.4422%
BRANCH_DIRECT_JUMP: 771319 1.54264%
BRANCH_INDIRECT: 108663 0.217326%
BRANCH_CONDITIONAL: 6375051 12.7501%
BRANCH_DIRECT_CALL: 1049638 2.09928%
BRANCH_INDIRECT_CALL: 212282 0.424564%
BRANCH_RETURN: 1261928 2.52386%
BRANCH_OTHER: 0 0%

