Initialize SIGNATURE TABLE
ST_SET: 1
ST_WAY: 256
ST_TAG_BIT: 16
ST_TAG_MASK: ffff

Initialize PATTERN TABLE
PT_SET: 512
PT_WAY: 4
SIG_DELTA_BIT: 7
C_SIG_BIT: 4
C_DELTA_BIT: 4

Initialize PREFETCH FILTER
FILTER_SET: 1024

*** ChampSim Multicore Out-of-Order Simulator ***

Warmup Instructions: 50000000
Simulation Instructions: 50000000
Number of CPUs: 1
LLC sets: 2048
LLC ways: 16
Off-chip DRAM Size: 4096 MB Channels: 1 Width: 64-bit Data Rate: 3200 MT/s

CPU 0 runs /home/sankara2004/240C/hw1/ChampSim_2/ChampSim/ipc1_public/server_027.champsimtrace.xz
LHT KB: 252.50
SCC KB: 1.56
Total KB: 254.06
CPU 0 L1D next line prefetcher
Heartbeat CPU 0 instructions: 10000001 cycles: 3529426 heartbeat IPC: 2.83332 cumulative IPC: 2.83332 (Simulation time: 0 hr 5 min 57 sec) 
Heartbeat CPU 0 instructions: 20000001 cycles: 7063178 heartbeat IPC: 2.82985 cumulative IPC: 2.83159 (Simulation time: 0 hr 11 min 43 sec) 
Heartbeat CPU 0 instructions: 30000002 cycles: 10592142 heartbeat IPC: 2.83369 cumulative IPC: 2.83229 (Simulation time: 0 hr 17 min 30 sec) 
Heartbeat CPU 0 instructions: 40000000 cycles: 14126636 heartbeat IPC: 2.82926 cumulative IPC: 2.83153 (Simulation time: 0 hr 23 min 16 sec) 
Heartbeat CPU 0 instructions: 50000001 cycles: 17654916 heartbeat IPC: 2.83424 cumulative IPC: 2.83207 (Simulation time: 0 hr 29 min 1 sec) 

Warmup complete CPU 0 instructions: 50000001 cycles: 17654916 (Simulation time: 0 hr 29 min 1 sec) 

Heartbeat CPU 0 instructions: 60000002 cycles: 24631437 heartbeat IPC: 1.43338 cumulative IPC: 1.43338 (Simulation time: 0 hr 36 min 35 sec) 
Heartbeat CPU 0 instructions: 70000003 cycles: 31562781 heartbeat IPC: 1.44272 cumulative IPC: 1.43804 (Simulation time: 0 hr 44 min 17 sec) 
Heartbeat CPU 0 instructions: 80000002 cycles: 38512112 heartbeat IPC: 1.43899 cumulative IPC: 1.43835 (Simulation time: 0 hr 52 min 7 sec) 
Heartbeat CPU 0 instructions: 90000001 cycles: 45542372 heartbeat IPC: 1.42242 cumulative IPC: 1.43434 (Simulation time: 0 hr 59 min 41 sec) 
Heartbeat CPU 0 instructions: 100000002 cycles: 52475027 heartbeat IPC: 1.44245 cumulative IPC: 1.43595 (Simulation time: 1 hr 7 min 1 sec) 
Finished CPU 0 instructions: 50000001 cycles: 34820111 cumulative IPC: 1.43595 (Simulation time: 1 hr 7 min 1 sec) 

ChampSim completed all CPUs

Region of Interest Statistics

CPU 0 cumulative IPC: 1.43595 instructions: 50000001 cycles: 34820111
L1D TOTAL     ACCESS:   20045511  HIT:   18443645  MISS:    1601866
L1D LOAD      ACCESS:    7018584  HIT:    6326794  MISS:     691790
L1D RFO       ACCESS:    6294343  HIT:    6009002  MISS:     285341
L1D PREFETCH  ACCESS:    6732584  HIT:    6107849  MISS:     624735
L1D WRITEBACK ACCESS:          0  HIT:          0  MISS:          0
L1D PREFETCH  REQUESTED:    7063135  ISSUED:    6938885  USEFUL:     149631  USELESS:     475116
L1D AVERAGE MISS LATENCY: 24.3936 cycles
L1I TOTAL     ACCESS:   24852792  HIT:   19515769  MISS:    5337023
L1I LOAD      ACCESS:    9363349  HIT:    8851383  MISS:     511966
L1I RFO       ACCESS:          0  HIT:          0  MISS:          0
L1I PREFETCH  ACCESS:   15489443  HIT:   10664386  MISS:    4825057
L1I WRITEBACK ACCESS:          0  HIT:          0  MISS:          0
L1I PREFETCH  REQUESTED:   18049896  ISSUED:   18049896  USEFUL:    2454314  USELESS:    2370699
L1I AVERAGE MISS LATENCY: 15.4393 cycles
L2C TOTAL     ACCESS:    9414472  HIT:    8627814  MISS:     786658
L2C LOAD      ACCESS:     753231  HIT:     601238  MISS:     151993
L2C RFO       ACCESS:     283418  HIT:     189826  MISS:      93592
L2C PREFETCH  ACCESS:    7818639  HIT:    7284902  MISS:     533737
L2C WRITEBACK ACCESS:     559184  HIT:     551848  MISS:       7336
L2C PREFETCH  REQUESTED:    5405610  ISSUED:    5397671  USEFUL:      17106  USELESS:     515826
L2C AVERAGE MISS LATENCY: 37.3534 cycles
LLC TOTAL     ACCESS:    2367102  HIT:    2335314  MISS:      31788
LLC LOAD      ACCESS:     151813  HIT:     148691  MISS:       3122
LLC RFO       ACCESS:      93592  HIT:      79690  MISS:      13902
LLC PREFETCH  ACCESS:    1960752  HIT:    1946135  MISS:      14617
LLC WRITEBACK ACCESS:     160945  HIT:     160798  MISS:        147
LLC PREFETCH  REQUESTED:          0  ISSUED:          0  USEFUL:       1082  USELESS:      13201
LLC AVERAGE MISS LATENCY: 189.013 cycles
Major fault: 0 Minor fault: 2493
CPU 0 L1D next line prefetcher final stats

DRAM Statistics
 CHANNEL 0
 RQ ROW_BUFFER_HIT:      10675  ROW_BUFFER_MISS:      20962
 DBUS_CONGESTED:      22459
 WQ ROW_BUFFER_HIT:       1511  ROW_BUFFER_MISS:      14489  FULL:          0

 AVG_CONGESTED_CYCLE: 6

CPU 0 Branch Prediction Accuracy: 99.8082% MPKI: 0.35064 Average ROB Occupancy at Mispredict: 175.304

Branch types
NOT_BRANCH: 40857507 81.715%
BRANCH_DIRECT_JUMP: 526635 1.05327%
BRANCH_INDIRECT: 205902 0.411804%
BRANCH_CONDITIONAL: 6184050 12.3681%
BRANCH_DIRECT_CALL: 938468 1.87694%
BRANCH_INDIRECT_CALL: 174486 0.348972%
BRANCH_RETURN: 1112959 2.22592%
BRANCH_OTHER: 0 0%

