Initialize SIGNATURE TABLE
ST_SET: 1
ST_WAY: 256
ST_TAG_BIT: 16
ST_TAG_MASK: ffff

Initialize PATTERN TABLE
PT_SET: 512
PT_WAY: 4
SIG_DELTA_BIT: 7
C_SIG_BIT: 4
C_DELTA_BIT: 4

Initialize PREFETCH FILTER
FILTER_SET: 1024

*** ChampSim Multicore Out-of-Order Simulator ***

Warmup Instructions: 50000000
Simulation Instructions: 50000000
Number of CPUs: 1
LLC sets: 2048
LLC ways: 16
Off-chip DRAM Size: 4096 MB Channels: 1 Width: 64-bit Data Rate: 3200 MT/s

CPU 0 runs /home/sankara2004/240C/hw1/ChampSim_2/ChampSim/ipc1_public/server_022.champsimtrace.xz
LHT KB: 31.56
SCC KB: 1.56
Total KB: 33.12
CPU 0 L1D next line prefetcher
Heartbeat CPU 0 instructions: 10000002 cycles: 3624211 heartbeat IPC: 2.75922 cumulative IPC: 2.75922 (Simulation time: 0 hr 5 min 50 sec) 
Heartbeat CPU 0 instructions: 20000001 cycles: 7254985 heartbeat IPC: 2.75423 cumulative IPC: 2.75673 (Simulation time: 0 hr 11 min 36 sec) 
Heartbeat CPU 0 instructions: 30000003 cycles: 10879127 heartbeat IPC: 2.75927 cumulative IPC: 2.75757 (Simulation time: 0 hr 17 min 24 sec) 
Heartbeat CPU 0 instructions: 40000003 cycles: 14510474 heartbeat IPC: 2.7538 cumulative IPC: 2.75663 (Simulation time: 0 hr 23 min 8 sec) 
Heartbeat CPU 0 instructions: 50000002 cycles: 18132409 heartbeat IPC: 2.76095 cumulative IPC: 2.75749 (Simulation time: 0 hr 28 min 49 sec) 

Warmup complete CPU 0 instructions: 50000002 cycles: 18132409 (Simulation time: 0 hr 28 min 50 sec) 

Heartbeat CPU 0 instructions: 60000000 cycles: 35602723 heartbeat IPC: 0.572399 cumulative IPC: 0.572399 (Simulation time: 0 hr 36 min 19 sec) 
Heartbeat CPU 0 instructions: 70000001 cycles: 53264743 heartbeat IPC: 0.566187 cumulative IPC: 0.569276 (Simulation time: 0 hr 44 min 0 sec) 
Heartbeat CPU 0 instructions: 80000001 cycles: 70680442 heartbeat IPC: 0.574195 cumulative IPC: 0.570906 (Simulation time: 0 hr 51 min 47 sec) 
Heartbeat CPU 0 instructions: 90000003 cycles: 88365847 heartbeat IPC: 0.565438 cumulative IPC: 0.569529 (Simulation time: 0 hr 59 min 24 sec) 
Heartbeat CPU 0 instructions: 100000003 cycles: 105679795 heartbeat IPC: 0.577569 cumulative IPC: 0.571119 (Simulation time: 1 hr 6 min 50 sec) 
Finished CPU 0 instructions: 50000001 cycles: 87547386 cumulative IPC: 0.571119 (Simulation time: 1 hr 6 min 50 sec) 

ChampSim completed all CPUs

Region of Interest Statistics

CPU 0 cumulative IPC: 0.571119 instructions: 50000001 cycles: 87547386
L1D TOTAL     ACCESS:   18733244  HIT:   16522437  MISS:    2210807
L1D LOAD      ACCESS:    7058365  HIT:    6337244  MISS:     721121
L1D RFO       ACCESS:    5932861  HIT:    4953104  MISS:     979757
L1D PREFETCH  ACCESS:    5742018  HIT:    5232089  MISS:     509929
L1D WRITEBACK ACCESS:          0  HIT:          0  MISS:          0
L1D PREFETCH  REQUESTED:    7102125  ISSUED:    6893957  USEFUL:     188698  USELESS:     321236
L1D AVERAGE MISS LATENCY: 179.494 cycles
L1I TOTAL     ACCESS:   24108548  HIT:   20985891  MISS:    3122657
L1I LOAD      ACCESS:   10083860  HIT:    9859343  MISS:     224517
L1I RFO       ACCESS:          0  HIT:          0  MISS:          0
L1I PREFETCH  ACCESS:   14024688  HIT:   11126548  MISS:    2898140
L1I WRITEBACK ACCESS:          0  HIT:          0  MISS:          0
L1I PREFETCH  REQUESTED:   15807195  ISSUED:   15807195  USEFUL:    2203658  USELESS:     694457
L1I AVERAGE MISS LATENCY: 16.1082 cycles
L2C TOTAL     ACCESS:    7652724  HIT:    5779135  MISS:    1873589
L2C LOAD      ACCESS:     510633  HIT:     260569  MISS:     250064
L2C RFO       ACCESS:     979013  HIT:      21332  MISS:     957681
L2C PREFETCH  ACCESS:    4977910  HIT:    4316767  MISS:     661143
L2C WRITEBACK ACCESS:    1185168  HIT:    1180467  MISS:       4701
L2C PREFETCH  REQUESTED:    3357843  ISSUED:    3356880  USEFUL:      21654  USELESS:     639330
L2C AVERAGE MISS LATENCY: 219.999 cycles
LLC TOTAL     ACCESS:    3826938  HIT:    2446985  MISS:    1379953
LLC LOAD      ACCESS:     250048  HIT:     172382  MISS:      77666
LLC RFO       ACCESS:     957681  HIT:     141647  MISS:     816034
LLC PREFETCH  ACCESS:    1500161  HIT:    1016248  MISS:     483913
LLC WRITEBACK ACCESS:    1119048  HIT:    1116708  MISS:       2340
LLC PREFETCH  REQUESTED:          0  ISSUED:          0  USEFUL:      24459  USELESS:     459556
LLC AVERAGE MISS LATENCY: 287.697 cycles
Major fault: 0 Minor fault: 23516
CPU 0 L1D next line prefetcher final stats

DRAM Statistics
 CHANNEL 0
 RQ ROW_BUFFER_HIT:     389340  ROW_BUFFER_MISS:     988047
 DBUS_CONGESTED:    1397712
 WQ ROW_BUFFER_HIT:     284635  ROW_BUFFER_MISS:     614772  FULL:          0

 AVG_CONGESTED_CYCLE: 6

CPU 0 Branch Prediction Accuracy: 99.8317% MPKI: 0.27564 Average ROB Occupancy at Mispredict: 217.588

Branch types
NOT_BRANCH: 41811139 83.6223%
BRANCH_DIRECT_JUMP: 445742 0.891484%
BRANCH_INDIRECT: 48876 0.097752%
BRANCH_CONDITIONAL: 5859405 11.7188%
BRANCH_DIRECT_CALL: 758266 1.51653%
BRANCH_INDIRECT_CALL: 159103 0.318206%
BRANCH_RETURN: 917372 1.83474%
BRANCH_OTHER: 0 0%

