Initialize SIGNATURE TABLE
ST_SET: 1
ST_WAY: 256
ST_TAG_BIT: 16
ST_TAG_MASK: ffff

Initialize PATTERN TABLE
PT_SET: 512
PT_WAY: 4
SIG_DELTA_BIT: 7
C_SIG_BIT: 4
C_DELTA_BIT: 4

Initialize PREFETCH FILTER
FILTER_SET: 1024

*** ChampSim Multicore Out-of-Order Simulator ***

Warmup Instructions: 50000000
Simulation Instructions: 50000000
Number of CPUs: 1
LLC sets: 2048
LLC ways: 16
Off-chip DRAM Size: 4096 MB Channels: 1 Width: 64-bit Data Rate: 3200 MT/s

CPU 0 runs /home/sankara2004/240C/hw1/ChampSim_2/ChampSim/ipc1_public/server_004.champsimtrace.xz
CPU 0 EPI prefetcher
CPU 0 L1D next line prefetcher
Heartbeat CPU 0 instructions: 10000002 cycles: 3228533 heartbeat IPC: 3.09738 cumulative IPC: 3.09738 (Simulation time: 0 hr 6 min 31 sec) 
Heartbeat CPU 0 instructions: 20000002 cycles: 6562784 heartbeat IPC: 2.99917 cumulative IPC: 3.04749 (Simulation time: 0 hr 12 min 59 sec) 
Heartbeat CPU 0 instructions: 30000000 cycles: 11679979 heartbeat IPC: 1.9542 cumulative IPC: 2.5685 (Simulation time: 0 hr 19 min 34 sec) 
Heartbeat CPU 0 instructions: 40000003 cycles: 15427395 heartbeat IPC: 2.66851 cumulative IPC: 2.59279 (Simulation time: 0 hr 26 min 4 sec) 
Heartbeat CPU 0 instructions: 50000003 cycles: 18654584 heartbeat IPC: 3.09867 cumulative IPC: 2.68031 (Simulation time: 0 hr 32 min 33 sec) 

Warmup complete CPU 0 instructions: 50000003 cycles: 18654584 (Simulation time: 0 hr 32 min 33 sec) 

Heartbeat CPU 0 instructions: 60000002 cycles: 27741543 heartbeat IPC: 1.10048 cumulative IPC: 1.10048 (Simulation time: 0 hr 40 min 49 sec) 
Heartbeat CPU 0 instructions: 70000000 cycles: 36341610 heartbeat IPC: 1.16278 cumulative IPC: 1.13077 (Simulation time: 0 hr 49 min 13 sec) 
Heartbeat CPU 0 instructions: 80000001 cycles: 57418626 heartbeat IPC: 0.47445 cumulative IPC: 0.773913 (Simulation time: 0 hr 57 min 57 sec) 
Heartbeat CPU 0 instructions: 90000003 cycles: 72317724 heartbeat IPC: 0.671182 cumulative IPC: 0.745391 (Simulation time: 1 hr 6 min 19 sec) 
Heartbeat CPU 0 instructions: 100000003 cycles: 81540827 heartbeat IPC: 1.08423 cumulative IPC: 0.795086 (Simulation time: 1 hr 14 min 6 sec) 
Finished CPU 0 instructions: 50000000 cycles: 62886243 cumulative IPC: 0.795086 (Simulation time: 1 hr 14 min 6 sec) 

ChampSim completed all CPUs

Region of Interest Statistics

CPU 0 cumulative IPC: 0.795086 instructions: 50000000 cycles: 62886243
L1D TOTAL     ACCESS:   21728323  HIT:   17657272  MISS:    4071051
L1D LOAD      ACCESS:    8644354  HIT:    6628572  MISS:    2015782
L1D RFO       ACCESS:    4645732  HIT:    4538930  MISS:     106802
L1D PREFETCH  ACCESS:    8438237  HIT:    6489770  MISS:    1948467
L1D WRITEBACK ACCESS:          0  HIT:          0  MISS:          0
L1D PREFETCH  REQUESTED:    8679255  ISSUED:    8588705  USEFUL:     108835  USELESS:    1839624
L1D AVERAGE MISS LATENCY: 22.974 cycles
L1I TOTAL     ACCESS:   36865833  HIT:   35484350  MISS:    1381483
L1I LOAD      ACCESS:   10666626  HIT:   10496632  MISS:     169994
L1I RFO       ACCESS:          0  HIT:          0  MISS:          0
L1I PREFETCH  ACCESS:   26199207  HIT:   24987718  MISS:    1211489
L1I WRITEBACK ACCESS:          0  HIT:          0  MISS:          0
L1I PREFETCH  REQUESTED:   35152434  ISSUED:   35152434  USEFUL:     913800  USELESS:     297638
L1I AVERAGE MISS LATENCY: 35.6494 cycles
L2C TOTAL     ACCESS:    7008428  HIT:    5985781  MISS:    1022647
L2C LOAD      ACCESS:    2138575  HIT:    1838717  MISS:     299858
L2C RFO       ACCESS:     105545  HIT:      57376  MISS:      48169
L2C PREFETCH  ACCESS:    4519302  HIT:    3845770  MISS:     673532
L2C WRITEBACK ACCESS:     245006  HIT:     243918  MISS:       1088
L2C PREFETCH  REQUESTED:    6275176  ISSUED:    6270565  USEFUL:      35070  USELESS:     638122
L2C AVERAGE MISS LATENCY: 59.3519 cycles
LLC TOTAL     ACCESS:    2526231  HIT:    2269630  MISS:     256601
LLC LOAD      ACCESS:     289482  HIT:     244529  MISS:      44953
LLC RFO       ACCESS:      48167  HIT:      32241  MISS:      15926
LLC PREFETCH  ACCESS:    2049173  HIT:    1853945  MISS:     195228
LLC WRITEBACK ACCESS:     139409  HIT:     138915  MISS:        494
LLC PREFETCH  REQUESTED:          0  ISSUED:          0  USEFUL:      25195  USELESS:     169635
LLC AVERAGE MISS LATENCY: 176.101 cycles
Major fault: 0 Minor fault: 7595
CPU 0 L1I EPI prefetcher final stats
CPU 0 L1D next line prefetcher final stats

DRAM Statistics
 CHANNEL 0
 RQ ROW_BUFFER_HIT:      54759  ROW_BUFFER_MISS:     201310
 DBUS_CONGESTED:     109492
 WQ ROW_BUFFER_HIT:      11064  ROW_BUFFER_MISS:      45900  FULL:          0

 AVG_CONGESTED_CYCLE: 5

CPU 0 Branch Prediction Accuracy: 98.1603% MPKI: 3.89124 Average ROB Occupancy at Mispredict: 65.2398

Branch types
NOT_BRANCH: 39423755 78.8475%
BRANCH_DIRECT_JUMP: 551642 1.10328%
BRANCH_INDIRECT: 139368 0.278736%
BRANCH_CONDITIONAL: 7920858 15.8417%
BRANCH_DIRECT_CALL: 776072 1.55214%
BRANCH_INDIRECT_CALL: 194644 0.389288%
BRANCH_RETURN: 993311 1.98662%
BRANCH_OTHER: 0 0%

