Initialize SIGNATURE TABLE
ST_SET: 1
ST_WAY: 256
ST_TAG_BIT: 16
ST_TAG_MASK: ffff

Initialize PATTERN TABLE
PT_SET: 512
PT_WAY: 4
SIG_DELTA_BIT: 7
C_SIG_BIT: 4
C_DELTA_BIT: 4

Initialize PREFETCH FILTER
FILTER_SET: 1024

*** ChampSim Multicore Out-of-Order Simulator ***

Warmup Instructions: 50000000
Simulation Instructions: 50000000
Number of CPUs: 1
LLC sets: 2048
LLC ways: 16
Off-chip DRAM Size: 4096 MB Channels: 1 Width: 64-bit Data Rate: 3200 MT/s

CPU 0 runs /home/sankara2004/240C/hw1/ChampSim_2/ChampSim/ipc1_public/server_015.champsimtrace.xz
LHT KB: 252.50
SCC KB: 1.56
Total KB: 254.06
CPU 0 L1D next line prefetcher
Heartbeat CPU 0 instructions: 10000002 cycles: 3519460 heartbeat IPC: 2.84135 cumulative IPC: 2.84135 (Simulation time: 0 hr 5 min 51 sec) 
Heartbeat CPU 0 instructions: 20000001 cycles: 7107552 heartbeat IPC: 2.787 cumulative IPC: 2.81391 (Simulation time: 0 hr 11 min 34 sec) 
Heartbeat CPU 0 instructions: 30000001 cycles: 10646532 heartbeat IPC: 2.82567 cumulative IPC: 2.81782 (Simulation time: 0 hr 17 min 17 sec) 
Heartbeat CPU 0 instructions: 40000002 cycles: 14194573 heartbeat IPC: 2.81846 cumulative IPC: 2.81798 (Simulation time: 0 hr 22 min 57 sec) 
Heartbeat CPU 0 instructions: 50000002 cycles: 17742833 heartbeat IPC: 2.81828 cumulative IPC: 2.81804 (Simulation time: 0 hr 28 min 36 sec) 

Warmup complete CPU 0 instructions: 50000002 cycles: 17742833 (Simulation time: 0 hr 28 min 36 sec) 

Heartbeat CPU 0 instructions: 60000002 cycles: 24043820 heartbeat IPC: 1.58705 cumulative IPC: 1.58705 (Simulation time: 0 hr 36 min 8 sec) 
Heartbeat CPU 0 instructions: 70000003 cycles: 30358722 heartbeat IPC: 1.58356 cumulative IPC: 1.5853 (Simulation time: 0 hr 43 min 48 sec) 
Heartbeat CPU 0 instructions: 80000000 cycles: 36673238 heartbeat IPC: 1.58365 cumulative IPC: 1.58475 (Simulation time: 0 hr 51 min 37 sec) 
Heartbeat CPU 0 instructions: 90000000 cycles: 42990445 heartbeat IPC: 1.58298 cumulative IPC: 1.58431 (Simulation time: 0 hr 59 min 13 sec) 
Heartbeat CPU 0 instructions: 100000002 cycles: 49305965 heartbeat IPC: 1.5834 cumulative IPC: 1.58413 (Simulation time: 1 hr 6 min 44 sec) 
Finished CPU 0 instructions: 50000000 cycles: 31563132 cumulative IPC: 1.58413 (Simulation time: 1 hr 6 min 44 sec) 

ChampSim completed all CPUs

Region of Interest Statistics

CPU 0 cumulative IPC: 1.58413 instructions: 50000000 cycles: 31563132
L1D TOTAL     ACCESS:   21822805  HIT:   21806033  MISS:      16772
L1D LOAD      ACCESS:    6687916  HIT:    6687386  MISS:        530
L1D RFO       ACCESS:    8561555  HIT:    8561460  MISS:         95
L1D PREFETCH  ACCESS:    6573334  HIT:    6557187  MISS:      16147
L1D WRITEBACK ACCESS:          0  HIT:          0  MISS:          0
L1D PREFETCH  REQUESTED:    6687977  ISSUED:    6577685  USEFUL:         84  USELESS:      16060
L1D AVERAGE MISS LATENCY: 15.998 cycles
L1I TOTAL     ACCESS:   27556920  HIT:   25409692  MISS:    2147228
L1I LOAD      ACCESS:    9706985  HIT:    9564021  MISS:     142964
L1I RFO       ACCESS:          0  HIT:          0  MISS:          0
L1I PREFETCH  ACCESS:   17849935  HIT:   15845671  MISS:    2004264
L1I WRITEBACK ACCESS:          0  HIT:          0  MISS:          0
L1I PREFETCH  REQUESTED:   19652259  ISSUED:   19652259  USEFUL:    1561236  USELESS:     442989
L1I AVERAGE MISS LATENCY: 13.2838 cycles
L2C TOTAL     ACCESS:    2492407  HIT:    2492106  MISS:        301
L2C LOAD      ACCESS:      15760  HIT:      15685  MISS:         75
L2C RFO       ACCESS:         94  HIT:         87  MISS:          7
L2C PREFETCH  ACCESS:    2476204  HIT:    2475989  MISS:        215
L2C WRITEBACK ACCESS:        349  HIT:        345  MISS:          4
L2C PREFETCH  REQUESTED:     760950  ISSUED:     760950  USEFUL:         64  USELESS:        141
L2C AVERAGE MISS LATENCY: 78.186 cycles
LLC TOTAL     ACCESS:     208109  HIT:     207514  MISS:        595
LLC LOAD      ACCESS:         75  HIT:         58  MISS:         17
LLC RFO       ACCESS:          7  HIT:          5  MISS:          2
LLC PREFETCH  ACCESS:     207951  HIT:     207376  MISS:        575
LLC WRITEBACK ACCESS:         76  HIT:         75  MISS:          1
LLC PREFETCH  REQUESTED:          0  ISSUED:          0  USEFUL:          9  USELESS:        176
LLC AVERAGE MISS LATENCY: 180.274 cycles
Major fault: 0 Minor fault: 1900
CPU 0 L1D next line prefetcher final stats

DRAM Statistics
 CHANNEL 0
 RQ ROW_BUFFER_HIT:         49  ROW_BUFFER_MISS:        545
 DBUS_CONGESTED:        141
 WQ ROW_BUFFER_HIT:         31  ROW_BUFFER_MISS:        356  FULL:          0

 AVG_CONGESTED_CYCLE: 5

CPU 0 Branch Prediction Accuracy: 99.9085% MPKI: 0.15428 Average ROB Occupancy at Mispredict: 295.227

Branch types
NOT_BRANCH: 41573115 83.1462%
BRANCH_DIRECT_JUMP: 436254 0.872508%
BRANCH_INDIRECT: 0 0%
BRANCH_CONDITIONAL: 5395894 10.7918%
BRANCH_DIRECT_CALL: 1173390 2.34678%
BRANCH_INDIRECT_CALL: 123911 0.247822%
BRANCH_RETURN: 1297311 2.59462%
BRANCH_OTHER: 0 0%

