Initialize SIGNATURE TABLE
ST_SET: 1
ST_WAY: 256
ST_TAG_BIT: 16
ST_TAG_MASK: ffff

Initialize PATTERN TABLE
PT_SET: 512
PT_WAY: 4
SIG_DELTA_BIT: 7
C_SIG_BIT: 4
C_DELTA_BIT: 4

Initialize PREFETCH FILTER
FILTER_SET: 1024

*** ChampSim Multicore Out-of-Order Simulator ***

Warmup Instructions: 50000000
Simulation Instructions: 50000000
Number of CPUs: 1
LLC sets: 2048
LLC ways: 16
Off-chip DRAM Size: 4096 MB Channels: 1 Width: 64-bit Data Rate: 3200 MT/s

CPU 0 runs /home/sankara2004/240C/hw1/ChampSim_2/ChampSim/ipc1_public/server_021.champsimtrace.xz
CPU 0 EPI prefetcher
CPU 0 L1D next line prefetcher
Heartbeat CPU 0 instructions: 10000000 cycles: 3623082 heartbeat IPC: 2.76008 cumulative IPC: 2.76008 (Simulation time: 0 hr 0 min 37 sec) 
Heartbeat CPU 0 instructions: 20000000 cycles: 7240461 heartbeat IPC: 2.76443 cumulative IPC: 2.76225 (Simulation time: 0 hr 1 min 14 sec) 
Heartbeat CPU 0 instructions: 30000003 cycles: 10888773 heartbeat IPC: 2.74099 cumulative IPC: 2.75513 (Simulation time: 0 hr 1 min 51 sec) 
Heartbeat CPU 0 instructions: 40000001 cycles: 14501527 heartbeat IPC: 2.76797 cumulative IPC: 2.75833 (Simulation time: 0 hr 2 min 28 sec) 
Heartbeat CPU 0 instructions: 50000002 cycles: 18136285 heartbeat IPC: 2.75121 cumulative IPC: 2.7569 (Simulation time: 0 hr 3 min 5 sec) 

Warmup complete CPU 0 instructions: 50000002 cycles: 18136285 (Simulation time: 0 hr 3 min 5 sec) 

Heartbeat CPU 0 instructions: 60000001 cycles: 34874727 heartbeat IPC: 0.597427 cumulative IPC: 0.597427 (Simulation time: 0 hr 4 min 11 sec) 
Heartbeat CPU 0 instructions: 70000002 cycles: 51843849 heartbeat IPC: 0.589306 cumulative IPC: 0.593339 (Simulation time: 0 hr 5 min 20 sec) 
Heartbeat CPU 0 instructions: 80000001 cycles: 68649136 heartbeat IPC: 0.595051 cumulative IPC: 0.593908 (Simulation time: 0 hr 6 min 27 sec) 
Heartbeat CPU 0 instructions: 90000001 cycles: 85726857 heartbeat IPC: 0.585558 cumulative IPC: 0.591798 (Simulation time: 0 hr 7 min 34 sec) 
Heartbeat CPU 0 instructions: 100000002 cycles: 102522482 heartbeat IPC: 0.595393 cumulative IPC: 0.592514 (Simulation time: 0 hr 8 min 40 sec) 
Finished CPU 0 instructions: 50000000 cycles: 84386197 cumulative IPC: 0.592514 (Simulation time: 0 hr 8 min 40 sec) 

ChampSim completed all CPUs

Region of Interest Statistics

CPU 0 cumulative IPC: 0.592514 instructions: 50000000 cycles: 84386197
L1D TOTAL     ACCESS:   18703445  HIT:   16499944  MISS:    2203501
L1D LOAD      ACCESS:    7056993  HIT:    6350455  MISS:     706538
L1D RFO       ACCESS:    5884462  HIT:    4908896  MISS:     975566
L1D PREFETCH  ACCESS:    5761990  HIT:    5240593  MISS:     521397
L1D WRITEBACK ACCESS:          0  HIT:          0  MISS:          0
L1D PREFETCH  REQUESTED:    7099460  ISSUED:    6892744  USEFUL:     200113  USELESS:     321278
L1D AVERAGE MISS LATENCY: 178.327 cycles
L1I TOTAL     ACCESS:   33512454  HIT:   30953011  MISS:    2559443
L1I LOAD      ACCESS:   10132750  HIT:   10111462  MISS:      21288
L1I RFO       ACCESS:          0  HIT:          0  MISS:          0
L1I PREFETCH  ACCESS:   23379704  HIT:   20841549  MISS:    2538155
L1I WRITEBACK ACCESS:          0  HIT:          0  MISS:          0
L1I PREFETCH  REQUESTED:   27139707  ISSUED:   27139707  USEFUL:    2373076  USELESS:     165025
L1I AVERAGE MISS LATENCY: 18.6261 cycles
L2C TOTAL     ACCESS:    6993871  HIT:    5131163  MISS:    1862708
L2C LOAD      ACCESS:     487390  HIT:     240945  MISS:     246445
L2C RFO       ACCESS:     974964  HIT:      21563  MISS:     953401
L2C PREFETCH  ACCESS:    4351630  HIT:    3691411  MISS:     660219
L2C WRITEBACK ACCESS:    1179887  HIT:    1177244  MISS:       2643
L2C PREFETCH  REQUESTED:    4032987  ISSUED:    4028013  USEFUL:      20658  USELESS:     639598
L2C AVERAGE MISS LATENCY: 217.24 cycles
LLC TOTAL     ACCESS:    4015465  HIT:    2627721  MISS:    1387744
LLC LOAD      ACCESS:     246328  HIT:     172243  MISS:      74085
LLC RFO       ACCESS:     953330  HIT:     142182  MISS:     811148
LLC PREFETCH  ACCESS:    1703765  HIT:    1203333  MISS:     500432
LLC WRITEBACK ACCESS:    1112042  HIT:    1109963  MISS:       2079
LLC PREFETCH  REQUESTED:          0  ISSUED:          0  USEFUL:      27486  USELESS:     471284
LLC AVERAGE MISS LATENCY: 289.35 cycles
Major fault: 0 Minor fault: 22291
CPU 0 L1I EPI prefetcher final stats
CPU 0 L1D next line prefetcher final stats

DRAM Statistics
 CHANNEL 0
 RQ ROW_BUFFER_HIT:     400816  ROW_BUFFER_MISS:     984540
 DBUS_CONGESTED:    1422859
 WQ ROW_BUFFER_HIT:     269246  ROW_BUFFER_MISS:     627132  FULL:          0

 AVG_CONGESTED_CYCLE: 6

CPU 0 Branch Prediction Accuracy: 99.8303% MPKI: 0.27836 Average ROB Occupancy at Mispredict: 227.925

Branch types
NOT_BRANCH: 41798548 83.5971%
BRANCH_DIRECT_JUMP: 445215 0.89043%
BRANCH_INDIRECT: 50481 0.100962%
BRANCH_CONDITIONAL: 5868246 11.7365%
BRANCH_DIRECT_CALL: 758228 1.51646%
BRANCH_INDIRECT_CALL: 160494 0.320988%
BRANCH_RETURN: 918718 1.83744%
BRANCH_OTHER: 0 0%

