Initialize SIGNATURE TABLE
ST_SET: 1
ST_WAY: 256
ST_TAG_BIT: 16
ST_TAG_MASK: ffff

Initialize PATTERN TABLE
PT_SET: 512
PT_WAY: 4
SIG_DELTA_BIT: 7
C_SIG_BIT: 4
C_DELTA_BIT: 4

Initialize PREFETCH FILTER
FILTER_SET: 1024

*** ChampSim Multicore Out-of-Order Simulator ***

Warmup Instructions: 50000000
Simulation Instructions: 50000000
Number of CPUs: 1
LLC sets: 2048
LLC ways: 16
Off-chip DRAM Size: 4096 MB Channels: 1 Width: 64-bit Data Rate: 3200 MT/s

CPU 0 runs /home/sankara2004/240C/hw1/ChampSim_2/ChampSim/ipc1_public/server_023.champsimtrace.xz
LHT KB: 252.50
SCC KB: 1.56
Total KB: 254.06
CPU 0 L1D next line prefetcher
Heartbeat CPU 0 instructions: 10000000 cycles: 3502215 heartbeat IPC: 2.85534 cumulative IPC: 2.85534 (Simulation time: 0 hr 5 min 57 sec) 
Heartbeat CPU 0 instructions: 20000000 cycles: 7003058 heartbeat IPC: 2.85645 cumulative IPC: 2.8559 (Simulation time: 0 hr 11 min 43 sec) 
Heartbeat CPU 0 instructions: 30000001 cycles: 10497558 heartbeat IPC: 2.86164 cumulative IPC: 2.85781 (Simulation time: 0 hr 17 min 29 sec) 
Heartbeat CPU 0 instructions: 40000003 cycles: 13997974 heartbeat IPC: 2.8568 cumulative IPC: 2.85756 (Simulation time: 0 hr 23 min 13 sec) 
Heartbeat CPU 0 instructions: 50000001 cycles: 17500228 heartbeat IPC: 2.8553 cumulative IPC: 2.85711 (Simulation time: 0 hr 28 min 57 sec) 

Warmup complete CPU 0 instructions: 50000001 cycles: 17500228 (Simulation time: 0 hr 28 min 57 sec) 

Heartbeat CPU 0 instructions: 60000002 cycles: 24381831 heartbeat IPC: 1.45315 cumulative IPC: 1.45315 (Simulation time: 0 hr 36 min 32 sec) 
Heartbeat CPU 0 instructions: 70000002 cycles: 31471585 heartbeat IPC: 1.41049 cumulative IPC: 1.4315 (Simulation time: 0 hr 44 min 14 sec) 
Heartbeat CPU 0 instructions: 80000000 cycles: 38474992 heartbeat IPC: 1.42788 cumulative IPC: 1.43029 (Simulation time: 0 hr 52 min 3 sec) 
Heartbeat CPU 0 instructions: 90000000 cycles: 45478559 heartbeat IPC: 1.42784 cumulative IPC: 1.42968 (Simulation time: 0 hr 59 min 38 sec) 
Heartbeat CPU 0 instructions: 100000001 cycles: 52463792 heartbeat IPC: 1.43159 cumulative IPC: 1.43006 (Simulation time: 1 hr 7 min 1 sec) 
Finished CPU 0 instructions: 50000000 cycles: 34963564 cumulative IPC: 1.43006 (Simulation time: 1 hr 7 min 1 sec) 

ChampSim completed all CPUs

Region of Interest Statistics

CPU 0 cumulative IPC: 1.43006 instructions: 50000000 cycles: 34963564
L1D TOTAL     ACCESS:   19487856  HIT:   18020865  MISS:    1466991
L1D LOAD      ACCESS:    6913626  HIT:    6252211  MISS:     661415
L1D RFO       ACCESS:    5984106  HIT:    5722877  MISS:     261229
L1D PREFETCH  ACCESS:    6590124  HIT:    6045777  MISS:     544347
L1D WRITEBACK ACCESS:          0  HIT:          0  MISS:          0
L1D PREFETCH  REQUESTED:    6965068  ISSUED:    6846573  USEFUL:     129488  USELESS:     414868
L1D AVERAGE MISS LATENCY: 25.1691 cycles
L1I TOTAL     ACCESS:   23775128  HIT:   18948935  MISS:    4826193
L1I LOAD      ACCESS:    9351820  HIT:    8887968  MISS:     463852
L1I RFO       ACCESS:          0  HIT:          0  MISS:          0
L1I PREFETCH  ACCESS:   14423308  HIT:   10060967  MISS:    4362341
L1I WRITEBACK ACCESS:          0  HIT:          0  MISS:          0
L1I PREFETCH  REQUESTED:   16821060  ISSUED:   16821060  USEFUL:    2139828  USELESS:    2222474
L1I AVERAGE MISS LATENCY: 15.4985 cycles
L2C TOTAL     ACCESS:    8502016  HIT:    7786334  MISS:     715682
L2C LOAD      ACCESS:     684473  HIT:     547302  MISS:     137171
L2C RFO       ACCESS:     259467  HIT:     172277  MISS:      87190
L2C PREFETCH  ACCESS:    7058837  HIT:    6573436  MISS:     485401
L2C WRITEBACK ACCESS:     499239  HIT:     493319  MISS:       5920
L2C PREFETCH  REQUESTED:    4800632  ISSUED:    4795271  USEFUL:      21161  USELESS:     463559
L2C AVERAGE MISS LATENCY: 40.9082 cycles
LLC TOTAL     ACCESS:    2142416  HIT:    2094538  MISS:      47878
LLC LOAD      ACCESS:     137022  HIT:     131748  MISS:       5274
LLC RFO       ACCESS:      87188  HIT:      69249  MISS:      17939
LLC PREFETCH  ACCESS:    1771368  HIT:    1746926  MISS:      24442
LLC WRITEBACK ACCESS:     146838  HIT:     146615  MISS:        223
LLC PREFETCH  REQUESTED:          0  ISSUED:          0  USEFUL:       1672  USELESS:      22485
LLC AVERAGE MISS LATENCY: 189.992 cycles
Major fault: 0 Minor fault: 2785
CPU 0 L1D next line prefetcher final stats

DRAM Statistics
 CHANNEL 0
 RQ ROW_BUFFER_HIT:      15298  ROW_BUFFER_MISS:      32343
 DBUS_CONGESTED:      32144
 WQ ROW_BUFFER_HIT:       2309  ROW_BUFFER_MISS:      19074  FULL:          0

 AVG_CONGESTED_CYCLE: 6

CPU 0 Branch Prediction Accuracy: 99.6798% MPKI: 0.58608 Average ROB Occupancy at Mispredict: 137.736

Branch types
NOT_BRANCH: 40848324 81.6966%
BRANCH_DIRECT_JUMP: 548373 1.09675%
BRANCH_INDIRECT: 189802 0.379604%
BRANCH_CONDITIONAL: 6372772 12.7455%
BRANCH_DIRECT_CALL: 862207 1.72441%
BRANCH_INDIRECT_CALL: 158149 0.316298%
BRANCH_RETURN: 1020345 2.04069%
BRANCH_OTHER: 0 0%

