Initialize SIGNATURE TABLE
ST_SET: 1
ST_WAY: 256
ST_TAG_BIT: 16
ST_TAG_MASK: ffff

Initialize PATTERN TABLE
PT_SET: 512
PT_WAY: 4
SIG_DELTA_BIT: 7
C_SIG_BIT: 4
C_DELTA_BIT: 4

Initialize PREFETCH FILTER
FILTER_SET: 1024

*** ChampSim Multicore Out-of-Order Simulator ***

Warmup Instructions: 50000000
Simulation Instructions: 50000000
Number of CPUs: 1
LLC sets: 2048
LLC ways: 16
Off-chip DRAM Size: 4096 MB Channels: 1 Width: 64-bit Data Rate: 3200 MT/s

CPU 0 runs /home/sankara2004/240C/hw1/ChampSim_2/ChampSim/ipc1_public/server_015.champsimtrace.xz
LHT KB: 126.25
SCC KB: 1.56
Total KB: 127.81
CPU 0 L1D next line prefetcher
Heartbeat CPU 0 instructions: 10000002 cycles: 3519416 heartbeat IPC: 2.84138 cumulative IPC: 2.84138 (Simulation time: 0 hr 5 min 45 sec) 
Heartbeat CPU 0 instructions: 20000001 cycles: 7107057 heartbeat IPC: 2.78735 cumulative IPC: 2.8141 (Simulation time: 0 hr 11 min 19 sec) 
Heartbeat CPU 0 instructions: 30000001 cycles: 10646066 heartbeat IPC: 2.82565 cumulative IPC: 2.81794 (Simulation time: 0 hr 16 min 56 sec) 
Heartbeat CPU 0 instructions: 40000002 cycles: 14194107 heartbeat IPC: 2.81846 cumulative IPC: 2.81807 (Simulation time: 0 hr 22 min 32 sec) 
Heartbeat CPU 0 instructions: 50000002 cycles: 17742367 heartbeat IPC: 2.81828 cumulative IPC: 2.81811 (Simulation time: 0 hr 28 min 3 sec) 

Warmup complete CPU 0 instructions: 50000002 cycles: 17742367 (Simulation time: 0 hr 28 min 3 sec) 

Heartbeat CPU 0 instructions: 60000002 cycles: 24079756 heartbeat IPC: 1.57794 cumulative IPC: 1.57794 (Simulation time: 0 hr 35 min 24 sec) 
Heartbeat CPU 0 instructions: 70000003 cycles: 30423123 heartbeat IPC: 1.57645 cumulative IPC: 1.57719 (Simulation time: 0 hr 42 min 53 sec) 
Heartbeat CPU 0 instructions: 80000000 cycles: 36763697 heartbeat IPC: 1.57714 cumulative IPC: 1.57718 (Simulation time: 0 hr 50 min 30 sec) 
Heartbeat CPU 0 instructions: 90000000 cycles: 43109632 heartbeat IPC: 1.57581 cumulative IPC: 1.57684 (Simulation time: 0 hr 57 min 54 sec) 
Heartbeat CPU 0 instructions: 100000002 cycles: 49458252 heartbeat IPC: 1.57515 cumulative IPC: 1.5765 (Simulation time: 1 hr 5 min 10 sec) 
Finished CPU 0 instructions: 50000000 cycles: 31715885 cumulative IPC: 1.5765 (Simulation time: 1 hr 5 min 10 sec) 

ChampSim completed all CPUs

Region of Interest Statistics

CPU 0 cumulative IPC: 1.5765 instructions: 50000000 cycles: 31715885
L1D TOTAL     ACCESS:   21886460  HIT:   21869625  MISS:      16835
L1D LOAD      ACCESS:    6718591  HIT:    6718057  MISS:        534
L1D RFO       ACCESS:    8562084  HIT:    8561989  MISS:         95
L1D PREFETCH  ACCESS:    6605785  HIT:    6589579  MISS:      16206
L1D WRITEBACK ACCESS:          0  HIT:          0  MISS:          0
L1D PREFETCH  REQUESTED:    6718650  ISSUED:    6610050  USEFUL:         84  USELESS:      16119
L1D AVERAGE MISS LATENCY: 16.2477 cycles
L1I TOTAL     ACCESS:   22011728  HIT:   20510788  MISS:    1500940
L1I LOAD      ACCESS:    9576050  HIT:    9142159  MISS:     433891
L1I RFO       ACCESS:          0  HIT:          0  MISS:          0
L1I PREFETCH  ACCESS:   12435678  HIT:   11368629  MISS:    1067049
L1I WRITEBACK ACCESS:          0  HIT:          0  MISS:          0
L1I PREFETCH  REQUESTED:   14492498  ISSUED:   14492498  USEFUL:     991518  USELESS:      75513
L1I AVERAGE MISS LATENCY: 10.2052 cycles
L2C TOTAL     ACCESS:    1833581  HIT:    1833216  MISS:        365
L2C LOAD      ACCESS:      16595  HIT:      16531  MISS:         64
L2C RFO       ACCESS:         94  HIT:         91  MISS:          3
L2C PREFETCH  ACCESS:    1816542  HIT:    1816246  MISS:        296
L2C WRITEBACK ACCESS:        350  HIT:        348  MISS:          2
L2C PREFETCH  REQUESTED:     628288  ISSUED:     628280  USEFUL:         74  USELESS:        168
L2C AVERAGE MISS LATENCY: 129.093 cycles
LLC TOTAL     ACCESS:     161843  HIT:     161088  MISS:        755
LLC LOAD      ACCESS:         64  HIT:         47  MISS:         17
LLC RFO       ACCESS:          3  HIT:          1  MISS:          2
LLC PREFETCH  ACCESS:     161664  HIT:     160928  MISS:        736
LLC WRITEBACK ACCESS:        112  HIT:        112  MISS:          0
LLC PREFETCH  REQUESTED:          0  ISSUED:          0  USEFUL:          5  USELESS:        221
LLC AVERAGE MISS LATENCY: 418.895 cycles
Major fault: 0 Minor fault: 1895
CPU 0 L1D next line prefetcher final stats

DRAM Statistics
 CHANNEL 0
 RQ ROW_BUFFER_HIT:        118  ROW_BUFFER_MISS:        637
 DBUS_CONGESTED:        420
 WQ ROW_BUFFER_HIT:         51  ROW_BUFFER_MISS:        463  FULL:          0

 AVG_CONGESTED_CYCLE: 6

CPU 0 Branch Prediction Accuracy: 99.9085% MPKI: 0.15428 Average ROB Occupancy at Mispredict: 270.966

Branch types
NOT_BRANCH: 41573115 83.1462%
BRANCH_DIRECT_JUMP: 436254 0.872508%
BRANCH_INDIRECT: 0 0%
BRANCH_CONDITIONAL: 5395894 10.7918%
BRANCH_DIRECT_CALL: 1173390 2.34678%
BRANCH_INDIRECT_CALL: 123911 0.247822%
BRANCH_RETURN: 1297311 2.59462%
BRANCH_OTHER: 0 0%

