Initialize SIGNATURE TABLE
ST_SET: 1
ST_WAY: 256
ST_TAG_BIT: 16
ST_TAG_MASK: ffff

Initialize PATTERN TABLE
PT_SET: 512
PT_WAY: 4
SIG_DELTA_BIT: 7
C_SIG_BIT: 4
C_DELTA_BIT: 4

Initialize PREFETCH FILTER
FILTER_SET: 1024

*** ChampSim Multicore Out-of-Order Simulator ***

Warmup Instructions: 50000000
Simulation Instructions: 50000000
Number of CPUs: 1
LLC sets: 2048
LLC ways: 16
Off-chip DRAM Size: 4096 MB Channels: 1 Width: 64-bit Data Rate: 3200 MT/s

CPU 0 runs /home/sankara2004/240C/hw1/ChampSim_2/ChampSim/ipc1_public/server_033.champsimtrace.xz
LHT KB: 31.56
SCC KB: 1.56
Total KB: 33.12
CPU 0 L1D next line prefetcher
Heartbeat CPU 0 instructions: 10000001 cycles: 3341076 heartbeat IPC: 2.99305 cumulative IPC: 2.99305 (Simulation time: 0 hr 5 min 50 sec) 
Heartbeat CPU 0 instructions: 20000002 cycles: 6680552 heartbeat IPC: 2.99448 cumulative IPC: 2.99376 (Simulation time: 0 hr 11 min 36 sec) 
Heartbeat CPU 0 instructions: 30000001 cycles: 10010415 heartbeat IPC: 3.00313 cumulative IPC: 2.99688 (Simulation time: 0 hr 17 min 24 sec) 
Heartbeat CPU 0 instructions: 40000000 cycles: 13348852 heartbeat IPC: 2.99541 cumulative IPC: 2.99651 (Simulation time: 0 hr 23 min 9 sec) 
Heartbeat CPU 0 instructions: 50000000 cycles: 16686516 heartbeat IPC: 2.99611 cumulative IPC: 2.99643 (Simulation time: 0 hr 28 min 51 sec) 

Warmup complete CPU 0 instructions: 50000004 cycles: 16686517 (Simulation time: 0 hr 28 min 51 sec) 

Heartbeat CPU 0 instructions: 60000000 cycles: 23342165 heartbeat IPC: 1.50248 cumulative IPC: 1.50248 (Simulation time: 0 hr 36 min 20 sec) 
Heartbeat CPU 0 instructions: 70000000 cycles: 29953313 heartbeat IPC: 1.5126 cumulative IPC: 1.50752 (Simulation time: 0 hr 44 min 2 sec) 
Heartbeat CPU 0 instructions: 80000000 cycles: 37445584 heartbeat IPC: 1.33471 cumulative IPC: 1.44515 (Simulation time: 0 hr 51 min 49 sec) 
Heartbeat CPU 0 instructions: 90000003 cycles: 44143475 heartbeat IPC: 1.49301 cumulative IPC: 1.45683 (Simulation time: 0 hr 59 min 27 sec) 
Heartbeat CPU 0 instructions: 100000000 cycles: 50775784 heartbeat IPC: 1.50777 cumulative IPC: 1.46674 (Simulation time: 1 hr 6 min 50 sec) 
Finished CPU 0 instructions: 50000000 cycles: 34089274 cumulative IPC: 1.46674 (Simulation time: 1 hr 6 min 50 sec) 

ChampSim completed all CPUs

Region of Interest Statistics

CPU 0 cumulative IPC: 1.46674 instructions: 50000000 cycles: 34089274
L1D TOTAL     ACCESS:   18429073  HIT:   16946716  MISS:    1482357
L1D LOAD      ACCESS:    6238126  HIT:    5554709  MISS:     683417
L1D RFO       ACCESS:    6164444  HIT:    6014617  MISS:     149827
L1D PREFETCH  ACCESS:    6026503  HIT:    5377390  MISS:     649113
L1D WRITEBACK ACCESS:          0  HIT:          0  MISS:          0
L1D PREFETCH  REQUESTED:    6282181  ISSUED:    6167684  USEFUL:     140841  USELESS:     508278
L1D AVERAGE MISS LATENCY: 23.8408 cycles
L1I TOTAL     ACCESS:   24777667  HIT:   19253068  MISS:    5524599
L1I LOAD      ACCESS:    9571534  HIT:    8896223  MISS:     675311
L1I RFO       ACCESS:          0  HIT:          0  MISS:          0
L1I PREFETCH  ACCESS:   15206133  HIT:   10356845  MISS:    4849288
L1I WRITEBACK ACCESS:          0  HIT:          0  MISS:          0
L1I PREFETCH  REQUESTED:   19674304  ISSUED:   19674304  USEFUL:    2815205  USELESS:    2033999
L1I AVERAGE MISS LATENCY: 13.6226 cycles
L2C TOTAL     ACCESS:    9603371  HIT:    9284663  MISS:     318708
L2C LOAD      ACCESS:     830864  HIT:     704247  MISS:     126617
L2C RFO       ACCESS:     148448  HIT:     125459  MISS:      22989
L2C PREFETCH  ACCESS:    8257576  HIT:    8090708  MISS:     166868
L2C WRITEBACK ACCESS:     366483  HIT:     364249  MISS:       2234
L2C PREFETCH  REQUESTED:    5575793  ISSUED:    5566644  USEFUL:      11069  USELESS:     155161
L2C AVERAGE MISS LATENCY: 48.2883 cycles
LLC TOTAL     ACCESS:    1514171  HIT:    1464005  MISS:      50166
LLC LOAD      ACCESS:     126593  HIT:     113382  MISS:      13211
LLC RFO       ACCESS:      22989  HIT:      19871  MISS:       3118
LLC PREFETCH  ACCESS:    1256339  HIT:    1222747  MISS:      33592
LLC WRITEBACK ACCESS:     108250  HIT:     108005  MISS:        245
LLC PREFETCH  REQUESTED:          0  ISSUED:          0  USEFUL:       5123  USELESS:      27745
LLC AVERAGE MISS LATENCY: 173.427 cycles
Major fault: 0 Minor fault: 2494
CPU 0 L1D next line prefetcher final stats

DRAM Statistics
 CHANNEL 0
 RQ ROW_BUFFER_HIT:       7715  ROW_BUFFER_MISS:      42205
 DBUS_CONGESTED:      20340
 WQ ROW_BUFFER_HIT:       3438  ROW_BUFFER_MISS:      15066  FULL:          0

 AVG_CONGESTED_CYCLE: 5

CPU 0 Branch Prediction Accuracy: 99.9029% MPKI: 0.19006 Average ROB Occupancy at Mispredict: 202.716

Branch types
NOT_BRANCH: 40217099 80.4342%
BRANCH_DIRECT_JUMP: 774599 1.5492%
BRANCH_INDIRECT: 108806 0.217612%
BRANCH_CONDITIONAL: 6379328 12.7587%
BRANCH_DIRECT_CALL: 1048808 2.09762%
BRANCH_INDIRECT_CALL: 211109 0.422218%
BRANCH_RETURN: 1259925 2.51985%
BRANCH_OTHER: 0 0%

