Initialize SIGNATURE TABLE
ST_SET: 1
ST_WAY: 256
ST_TAG_BIT: 16
ST_TAG_MASK: ffff

Initialize PATTERN TABLE
PT_SET: 512
PT_WAY: 4
SIG_DELTA_BIT: 7
C_SIG_BIT: 4
C_DELTA_BIT: 4

Initialize PREFETCH FILTER
FILTER_SET: 1024

*** ChampSim Multicore Out-of-Order Simulator ***

Warmup Instructions: 50000000
Simulation Instructions: 50000000
Number of CPUs: 1
LLC sets: 2048
LLC ways: 16
Off-chip DRAM Size: 4096 MB Channels: 1 Width: 64-bit Data Rate: 3200 MT/s

CPU 0 runs /home/sankara2004/240C/hw1/ChampSim_2/ChampSim/ipc1_public/server_009.champsimtrace.xz
LHT KB: 126.25
SCC KB: 1.56
Total KB: 127.81
CPU 0 L1D next line prefetcher
Heartbeat CPU 0 instructions: 10000003 cycles: 3197686 heartbeat IPC: 3.12726 cumulative IPC: 3.12726 (Simulation time: 0 hr 5 min 42 sec) 
Heartbeat CPU 0 instructions: 20000001 cycles: 6388525 heartbeat IPC: 3.13397 cumulative IPC: 3.13061 (Simulation time: 0 hr 11 min 21 sec) 
Heartbeat CPU 0 instructions: 30000001 cycles: 9594226 heartbeat IPC: 3.11944 cumulative IPC: 3.12688 (Simulation time: 0 hr 17 min 3 sec) 
Heartbeat CPU 0 instructions: 40000003 cycles: 12796589 heartbeat IPC: 3.12269 cumulative IPC: 3.12583 (Simulation time: 0 hr 22 min 42 sec) 
Heartbeat CPU 0 instructions: 50000000 cycles: 16055330 heartbeat IPC: 3.06867 cumulative IPC: 3.11423 (Simulation time: 0 hr 28 min 19 sec) 

Warmup complete CPU 0 instructions: 50000004 cycles: 16055331 (Simulation time: 0 hr 28 min 19 sec) 

Heartbeat CPU 0 instructions: 60000002 cycles: 31882308 heartbeat IPC: 0.631833 cumulative IPC: 0.631832 (Simulation time: 0 hr 35 min 43 sec) 
Heartbeat CPU 0 instructions: 70000003 cycles: 52999256 heartbeat IPC: 0.473553 cumulative IPC: 0.541361 (Simulation time: 0 hr 43 min 21 sec) 
Heartbeat CPU 0 instructions: 80000000 cycles: 60368732 heartbeat IPC: 1.35695 cumulative IPC: 0.676996 (Simulation time: 0 hr 50 min 56 sec) 
Heartbeat CPU 0 instructions: 90000001 cycles: 67869756 heartbeat IPC: 1.33315 cumulative IPC: 0.771986 (Simulation time: 0 hr 58 min 17 sec) 
Heartbeat CPU 0 instructions: 100000003 cycles: 75270879 heartbeat IPC: 1.35115 cumulative IPC: 0.844373 (Simulation time: 1 hr 5 min 20 sec) 
Finished CPU 0 instructions: 50000003 cycles: 59215549 cumulative IPC: 0.844373 (Simulation time: 1 hr 5 min 20 sec) 

ChampSim completed all CPUs

Region of Interest Statistics

CPU 0 cumulative IPC: 0.844373 instructions: 50000003 cycles: 59215549
L1D TOTAL     ACCESS:   21729844  HIT:   17149898  MISS:    4579946
L1D LOAD      ACCESS:    8678457  HIT:    6398837  MISS:    2279620
L1D RFO       ACCESS:    4586098  HIT:    4481594  MISS:     104504
L1D PREFETCH  ACCESS:    8465289  HIT:    6269467  MISS:    2195822
L1D WRITEBACK ACCESS:          0  HIT:          0  MISS:          0
L1D PREFETCH  REQUESTED:    8711688  ISSUED:    8614044  USEFUL:     107190  USELESS:    2088631
L1D AVERAGE MISS LATENCY: 20.391 cycles
L1I TOTAL     ACCESS:   18841621  HIT:   17201653  MISS:    1639968
L1I LOAD      ACCESS:   10710589  HIT:   10419392  MISS:     291197
L1I RFO       ACCESS:          0  HIT:          0  MISS:          0
L1I PREFETCH  ACCESS:    8131032  HIT:    6782261  MISS:    1348771
L1I WRITEBACK ACCESS:          0  HIT:          0  MISS:          0
L1I PREFETCH  REQUESTED:    9537288  ISSUED:    9537288  USEFUL:     818674  USELESS:     530093
L1I AVERAGE MISS LATENCY: 25.3678 cycles
L2C TOTAL     ACCESS:    7951278  HIT:    6907224  MISS:    1044054
L2C LOAD      ACCESS:    2298175  HIT:    2081790  MISS:     216385
L2C RFO       ACCESS:     103487  HIT:      62681  MISS:      40806
L2C PREFETCH  ACCESS:    5292735  HIT:    4507240  MISS:     785495
L2C WRITEBACK ACCESS:     256881  HIT:     255513  MISS:       1368
L2C PREFETCH  REQUESTED:    6379771  ISSUED:    6377438  USEFUL:      21074  USELESS:     763343
L2C AVERAGE MISS LATENCY: 47.9698 cycles
LLC TOTAL     ACCESS:    2276657  HIT:    2137826  MISS:     138831
LLC LOAD      ACCESS:     216178  HIT:     196947  MISS:      19231
LLC RFO       ACCESS:      40803  HIT:      31684  MISS:       9119
LLC PREFETCH  ACCESS:    1882826  HIT:    1772586  MISS:     110240
LLC WRITEBACK ACCESS:     136850  HIT:     136609  MISS:        241
LLC PREFETCH  REQUESTED:          0  ISSUED:          0  USEFUL:       9550  USELESS:      99319
LLC AVERAGE MISS LATENCY: 173.039 cycles
Major fault: 0 Minor fault: 6376
CPU 0 L1D next line prefetcher final stats

DRAM Statistics
 CHANNEL 0
 RQ ROW_BUFFER_HIT:      27066  ROW_BUFFER_MISS:     111496
 DBUS_CONGESTED:      62201
 WQ ROW_BUFFER_HIT:       9045  ROW_BUFFER_MISS:      38820  FULL:          0

 AVG_CONGESTED_CYCLE: 5

CPU 0 Branch Prediction Accuracy: 99.4713% MPKI: 1.11484 Average ROB Occupancy at Mispredict: 109.625

Branch types
NOT_BRANCH: 39456615 78.9132%
BRANCH_DIRECT_JUMP: 445350 0.8907%
BRANCH_INDIRECT: 131149 0.262298%
BRANCH_CONDITIONAL: 8130196 16.2604%
BRANCH_DIRECT_CALL: 732485 1.46497%
BRANCH_INDIRECT_CALL: 172369 0.344738%
BRANCH_RETURN: 931558 1.86312%
BRANCH_OTHER: 0 0%

