Initialize SIGNATURE TABLE
ST_SET: 1
ST_WAY: 256
ST_TAG_BIT: 16
ST_TAG_MASK: ffff

Initialize PATTERN TABLE
PT_SET: 512
PT_WAY: 4
SIG_DELTA_BIT: 7
C_SIG_BIT: 4
C_DELTA_BIT: 4

Initialize PREFETCH FILTER
FILTER_SET: 1024

*** ChampSim Multicore Out-of-Order Simulator ***

Warmup Instructions: 50000000
Simulation Instructions: 50000000
Number of CPUs: 1
LLC sets: 2048
LLC ways: 16
Off-chip DRAM Size: 4096 MB Channels: 1 Width: 64-bit Data Rate: 3200 MT/s

CPU 0 runs /home/sankara2004/240C/hw1/ChampSim_2/ChampSim/ipc1_public/server_014.champsimtrace.xz
CPU 0 EPI prefetcher
CPU 0 L1D next line prefetcher
Heartbeat CPU 0 instructions: 10000003 cycles: 3519552 heartbeat IPC: 2.84127 cumulative IPC: 2.84127 (Simulation time: 0 hr 0 min 38 sec) 
Heartbeat CPU 0 instructions: 20000000 cycles: 7106456 heartbeat IPC: 2.78792 cumulative IPC: 2.81434 (Simulation time: 0 hr 1 min 16 sec) 
Heartbeat CPU 0 instructions: 30000001 cycles: 10647946 heartbeat IPC: 2.82367 cumulative IPC: 2.81744 (Simulation time: 0 hr 1 min 56 sec) 
Heartbeat CPU 0 instructions: 40000003 cycles: 14196168 heartbeat IPC: 2.81831 cumulative IPC: 2.81766 (Simulation time: 0 hr 2 min 36 sec) 
Heartbeat CPU 0 instructions: 50000000 cycles: 17744843 heartbeat IPC: 2.81795 cumulative IPC: 2.81772 (Simulation time: 0 hr 3 min 16 sec) 

Warmup complete CPU 0 instructions: 50000001 cycles: 17744844 (Simulation time: 0 hr 3 min 16 sec) 

Heartbeat CPU 0 instructions: 60000000 cycles: 24036167 heartbeat IPC: 1.58949 cumulative IPC: 1.58949 (Simulation time: 0 hr 4 min 1 sec) 
Heartbeat CPU 0 instructions: 70000003 cycles: 30327639 heartbeat IPC: 1.58945 cumulative IPC: 1.58947 (Simulation time: 0 hr 4 min 46 sec) 
*** Reached end of trace for Core: 0 Repeating trace: /home/sankara2004/240C/hw1/ChampSim_2/ChampSim/ipc1_public/server_014.champsimtrace.xz
Heartbeat CPU 0 instructions: 80000001 cycles: 36899919 heartbeat IPC: 1.52154 cumulative IPC: 1.56616 (Simulation time: 0 hr 5 min 32 sec) 
Heartbeat CPU 0 instructions: 90000003 cycles: 44405192 heartbeat IPC: 1.3324 cumulative IPC: 1.50036 (Simulation time: 0 hr 6 min 17 sec) 
Heartbeat CPU 0 instructions: 100000001 cycles: 50888843 heartbeat IPC: 1.54234 cumulative IPC: 1.50857 (Simulation time: 0 hr 7 min 4 sec) 
Finished CPU 0 instructions: 50000000 cycles: 33143999 cumulative IPC: 1.50857 (Simulation time: 0 hr 7 min 4 sec) 

ChampSim completed all CPUs

Region of Interest Statistics

CPU 0 cumulative IPC: 1.50857 instructions: 50000000 cycles: 33143999
L1D TOTAL     ACCESS:   21626227  HIT:   21555365  MISS:      70862
L1D LOAD      ACCESS:    6672712  HIT:    6645766  MISS:      26946
L1D RFO       ACCESS:    8412824  HIT:    8380756  MISS:      32068
L1D PREFETCH  ACCESS:    6540691  HIT:    6528843  MISS:      11848
L1D WRITEBACK ACCESS:          0  HIT:          0  MISS:          0
L1D PREFETCH  REQUESTED:    6677159  ISSUED:    6568485  USEFUL:       3293  USELESS:       8555
L1D AVERAGE MISS LATENCY: 230.167 cycles
L1I TOTAL     ACCESS:   41456091  HIT:   38880568  MISS:    2575523
L1I LOAD      ACCESS:    9723866  HIT:    9670335  MISS:      53531
L1I RFO       ACCESS:          0  HIT:          0  MISS:          0
L1I PREFETCH  ACCESS:   31732225  HIT:   29210233  MISS:    2521992
L1I WRITEBACK ACCESS:          0  HIT:          0  MISS:          0
L1I PREFETCH  REQUESTED:   38694283  ISSUED:   38694283  USEFUL:    1906923  USELESS:     615105
L1I AVERAGE MISS LATENCY: 15.0349 cycles
L2C TOTAL     ACCESS:    3724430  HIT:    3652108  MISS:      72322
L2C LOAD      ACCESS:      59122  HIT:      40988  MISS:      18134
L2C RFO       ACCESS:      32015  HIT:       1088  MISS:      30927
L2C PREFETCH  ACCESS:    3594924  HIT:    3571694  MISS:      23230
L2C WRITEBACK ACCESS:      38369  HIT:      38338  MISS:         31
L2C PREFETCH  REQUESTED:    2469645  ISSUED:    2469505  USEFUL:       1298  USELESS:      21424
L2C AVERAGE MISS LATENCY: 261.508 cycles
LLC TOTAL     ACCESS:     476296  HIT:     410030  MISS:      66266
LLC LOAD      ACCESS:      17040  HIT:       4772  MISS:      12268
LLC RFO       ACCESS:      30927  HIT:       4176  MISS:      26751
LLC PREFETCH  ACCESS:     393630  HIT:     366513  MISS:      27117
LLC WRITEBACK ACCESS:      34699  HIT:      34569  MISS:        130
LLC PREFETCH  REQUESTED:          0  ISSUED:          0  USEFUL:       3978  USELESS:      23627
LLC AVERAGE MISS LATENCY: 317.277 cycles
Major fault: 0 Minor fault: 1912
CPU 0 L1I EPI prefetcher final stats
CPU 0 L1D next line prefetcher final stats

DRAM Statistics
 CHANNEL 0
 RQ ROW_BUFFER_HIT:      29208  ROW_BUFFER_MISS:      36925
 DBUS_CONGESTED:      67850
 WQ ROW_BUFFER_HIT:       8303  ROW_BUFFER_MISS:      23911  FULL:          0

 AVG_CONGESTED_CYCLE: 6

CPU 0 Branch Prediction Accuracy: 99.7719% MPKI: 0.38824 Average ROB Occupancy at Mispredict: 154.928

Branch types
NOT_BRANCH: 41489011 82.978%
BRANCH_DIRECT_JUMP: 449417 0.898834%
BRANCH_INDIRECT: 2330 0.00466%
BRANCH_CONDITIONAL: 5470016 10.94%
BRANCH_DIRECT_CALL: 1172187 2.34437%
BRANCH_INDIRECT_CALL: 122383 0.244766%
BRANCH_RETURN: 1294554 2.58911%
BRANCH_OTHER: 0 0%

