Initialize SIGNATURE TABLE
ST_SET: 1
ST_WAY: 256
ST_TAG_BIT: 16
ST_TAG_MASK: ffff

Initialize PATTERN TABLE
PT_SET: 512
PT_WAY: 4
SIG_DELTA_BIT: 7
C_SIG_BIT: 4
C_DELTA_BIT: 4

Initialize PREFETCH FILTER
FILTER_SET: 1024

*** ChampSim Multicore Out-of-Order Simulator ***

Warmup Instructions: 50000000
Simulation Instructions: 50000000
Number of CPUs: 1
LLC sets: 2048
LLC ways: 16
Off-chip DRAM Size: 4096 MB Channels: 1 Width: 64-bit Data Rate: 3200 MT/s

CPU 0 runs /home/sankara2004/240C/hw1/ChampSim_2/ChampSim/ipc1_public/server_011.champsimtrace.xz
LHT KB: 126.25
SCC KB: 1.56
Total KB: 127.81
CPU 0 L1D next line prefetcher
Heartbeat CPU 0 instructions: 10000002 cycles: 3203736 heartbeat IPC: 3.12136 cumulative IPC: 3.12136 (Simulation time: 0 hr 5 min 41 sec) 
Heartbeat CPU 0 instructions: 20000001 cycles: 6412583 heartbeat IPC: 3.11638 cumulative IPC: 3.11887 (Simulation time: 0 hr 11 min 18 sec) 
Heartbeat CPU 0 instructions: 30000001 cycles: 9666162 heartbeat IPC: 3.07354 cumulative IPC: 3.10361 (Simulation time: 0 hr 16 min 59 sec) 
Heartbeat CPU 0 instructions: 40000003 cycles: 12866828 heartbeat IPC: 3.12435 cumulative IPC: 3.10877 (Simulation time: 0 hr 22 min 36 sec) 
Heartbeat CPU 0 instructions: 50000000 cycles: 16074564 heartbeat IPC: 3.11746 cumulative IPC: 3.1105 (Simulation time: 0 hr 28 min 11 sec) 

Warmup complete CPU 0 instructions: 50000004 cycles: 16074565 (Simulation time: 0 hr 28 min 11 sec) 

Heartbeat CPU 0 instructions: 60000002 cycles: 23705387 heartbeat IPC: 1.31047 cumulative IPC: 1.31047 (Simulation time: 0 hr 35 min 32 sec) 
Heartbeat CPU 0 instructions: 70000001 cycles: 31703850 heartbeat IPC: 1.25024 cumulative IPC: 1.27965 (Simulation time: 0 hr 43 min 1 sec) 
Heartbeat CPU 0 instructions: 80000003 cycles: 40538028 heartbeat IPC: 1.13197 cumulative IPC: 1.22632 (Simulation time: 0 hr 50 min 37 sec) 
Heartbeat CPU 0 instructions: 90000001 cycles: 48416509 heartbeat IPC: 1.26928 cumulative IPC: 1.23678 (Simulation time: 0 hr 57 min 59 sec) 
Heartbeat CPU 0 instructions: 100000000 cycles: 56068969 heartbeat IPC: 1.30677 cumulative IPC: 1.25017 (Simulation time: 1 hr 5 min 13 sec) 
Finished CPU 0 instructions: 50000003 cycles: 39994416 cumulative IPC: 1.25017 (Simulation time: 1 hr 5 min 13 sec) 

ChampSim completed all CPUs

Region of Interest Statistics

CPU 0 cumulative IPC: 1.25017 instructions: 50000003 cycles: 39994416
L1D TOTAL     ACCESS:   18296070  HIT:   17264468  MISS:    1031602
L1D LOAD      ACCESS:    6847478  HIT:    6367203  MISS:     480275
L1D RFO       ACCESS:    4839592  HIT:    4757493  MISS:      82099
L1D PREFETCH  ACCESS:    6609000  HIT:    6139772  MISS:     469228
L1D WRITEBACK ACCESS:          0  HIT:          0  MISS:          0
L1D PREFETCH  REQUESTED:    6885272  ISSUED:    6792107  USEFUL:     138743  USELESS:     330480
L1D AVERAGE MISS LATENCY: 40.9179 cycles
L1I TOTAL     ACCESS:   17023377  HIT:   15041368  MISS:    1982009
L1I LOAD      ACCESS:    8822710  HIT:    8482730  MISS:     339980
L1I RFO       ACCESS:          0  HIT:          0  MISS:          0
L1I PREFETCH  ACCESS:    8200667  HIT:    6558638  MISS:    1642029
L1I WRITEBACK ACCESS:          0  HIT:          0  MISS:          0
L1I PREFETCH  REQUESTED:    9819795  ISSUED:    9819795  USEFUL:     959304  USELESS:     682605
L1I AVERAGE MISS LATENCY: 26.0953 cycles
L2C TOTAL     ACCESS:    4020734  HIT:    2860356  MISS:    1160378
L2C LOAD      ACCESS:     505165  HIT:     268413  MISS:     236752
L2C RFO       ACCESS:      80270  HIT:      33485  MISS:      46785
L2C PREFETCH  ACCESS:    3167156  HIT:    2292384  MISS:     874772
L2C WRITEBACK ACCESS:     268143  HIT:     266074  MISS:       2069
L2C PREFETCH  REQUESTED:    2848136  ISSUED:    2845381  USEFUL:      27990  USELESS:     846393
L2C AVERAGE MISS LATENCY: 52.003 cycles
LLC TOTAL     ACCESS:    2121784  HIT:    1937872  MISS:     183912
LLC LOAD      ACCESS:     236638  HIT:     212728  MISS:      23910
LLC RFO       ACCESS:      46769  HIT:      33388  MISS:      13381
LLC PREFETCH  ACCESS:    1681802  HIT:    1535408  MISS:     146394
LLC WRITEBACK ACCESS:     156575  HIT:     156348  MISS:        227
LLC PREFETCH  REQUESTED:          0  ISSUED:          0  USEFUL:      12399  USELESS:     132300
LLC AVERAGE MISS LATENCY: 178.118 cycles
Major fault: 0 Minor fault: 6998
CPU 0 L1D next line prefetcher final stats

DRAM Statistics
 CHANNEL 0
 RQ ROW_BUFFER_HIT:      35888  ROW_BUFFER_MISS:     147779
 DBUS_CONGESTED:      87453
 WQ ROW_BUFFER_HIT:      11828  ROW_BUFFER_MISS:      49749  FULL:          0

 AVG_CONGESTED_CYCLE: 5

CPU 0 Branch Prediction Accuracy: 97.5565% MPKI: 4.59006 Average ROB Occupancy at Mispredict: 59.0567

Branch types
NOT_BRANCH: 40607199 81.2144%
BRANCH_DIRECT_JUMP: 451601 0.903202%
BRANCH_INDIRECT: 151580 0.30316%
BRANCH_CONDITIONAL: 7041635 14.0833%
BRANCH_DIRECT_CALL: 647827 1.29565%
BRANCH_INDIRECT_CALL: 211373 0.422746%
BRANCH_RETURN: 888439 1.77688%
BRANCH_OTHER: 0 0%

