Initialize SIGNATURE TABLE
ST_SET: 1
ST_WAY: 256
ST_TAG_BIT: 16
ST_TAG_MASK: ffff

Initialize PATTERN TABLE
PT_SET: 512
PT_WAY: 4
SIG_DELTA_BIT: 7
C_SIG_BIT: 4
C_DELTA_BIT: 4

Initialize PREFETCH FILTER
FILTER_SET: 1024

*** ChampSim Multicore Out-of-Order Simulator ***

Warmup Instructions: 50000000
Simulation Instructions: 50000000
Number of CPUs: 1
LLC sets: 2048
LLC ways: 16
Off-chip DRAM Size: 4096 MB Channels: 1 Width: 64-bit Data Rate: 3200 MT/s

CPU 0 runs /home/sankara2004/240C/hw1/ChampSim_2/ChampSim/ipc1_public/server_015.champsimtrace.xz
CPU 0 EPI prefetcher
CPU 0 L1D next line prefetcher
Heartbeat CPU 0 instructions: 10000002 cycles: 3519392 heartbeat IPC: 2.8414 cumulative IPC: 2.8414 (Simulation time: 0 hr 6 min 32 sec) 
Heartbeat CPU 0 instructions: 20000001 cycles: 7107141 heartbeat IPC: 2.78726 cumulative IPC: 2.81407 (Simulation time: 0 hr 13 min 1 sec) 
Heartbeat CPU 0 instructions: 30000001 cycles: 10646092 heartbeat IPC: 2.8257 cumulative IPC: 2.81794 (Simulation time: 0 hr 19 min 38 sec) 
Heartbeat CPU 0 instructions: 40000002 cycles: 14194133 heartbeat IPC: 2.81846 cumulative IPC: 2.81807 (Simulation time: 0 hr 26 min 9 sec) 
Heartbeat CPU 0 instructions: 50000002 cycles: 17742393 heartbeat IPC: 2.81828 cumulative IPC: 2.81811 (Simulation time: 0 hr 32 min 39 sec) 

Warmup complete CPU 0 instructions: 50000002 cycles: 17742393 (Simulation time: 0 hr 32 min 39 sec) 

Heartbeat CPU 0 instructions: 60000002 cycles: 24041164 heartbeat IPC: 1.58761 cumulative IPC: 1.58761 (Simulation time: 0 hr 40 min 59 sec) 
Heartbeat CPU 0 instructions: 70000003 cycles: 30350412 heartbeat IPC: 1.58498 cumulative IPC: 1.58629 (Simulation time: 0 hr 49 min 31 sec) 
Heartbeat CPU 0 instructions: 80000000 cycles: 36659685 heartbeat IPC: 1.58497 cumulative IPC: 1.58585 (Simulation time: 0 hr 58 min 31 sec) 
Heartbeat CPU 0 instructions: 90000000 cycles: 42972100 heartbeat IPC: 1.58418 cumulative IPC: 1.58543 (Simulation time: 1 hr 6 min 51 sec) 
Heartbeat CPU 0 instructions: 100000002 cycles: 49281811 heartbeat IPC: 1.58486 cumulative IPC: 1.58532 (Simulation time: 1 hr 15 min 16 sec) 
Finished CPU 0 instructions: 50000000 cycles: 31539418 cumulative IPC: 1.58532 (Simulation time: 1 hr 15 min 16 sec) 

ChampSim completed all CPUs

Region of Interest Statistics

CPU 0 cumulative IPC: 1.58532 instructions: 50000000 cycles: 31539418
L1D TOTAL     ACCESS:   21829041  HIT:   21812274  MISS:      16767
L1D LOAD      ACCESS:    6691568  HIT:    6691038  MISS:        530
L1D RFO       ACCESS:    8561475  HIT:    8561381  MISS:         94
L1D PREFETCH  ACCESS:    6575998  HIT:    6559855  MISS:      16143
L1D WRITEBACK ACCESS:          0  HIT:          0  MISS:          0
L1D PREFETCH  REQUESTED:    6691625  ISSUED:    6580423  USEFUL:         85  USELESS:      16056
L1D AVERAGE MISS LATENCY: 16.4425 cycles
L1I TOTAL     ACCESS:   43811119  HIT:   41252930  MISS:    2558189
L1I LOAD      ACCESS:    9729430  HIT:    9678512  MISS:      50918
L1I RFO       ACCESS:          0  HIT:          0  MISS:          0
L1I PREFETCH  ACCESS:   34081689  HIT:   31574418  MISS:    2507271
L1I WRITEBACK ACCESS:          0  HIT:          0  MISS:          0
L1I PREFETCH  REQUESTED:   40919403  ISSUED:   40919403  USEFUL:    1986961  USELESS:     520330
L1I AVERAGE MISS LATENCY: 14.2774 cycles
L2C TOTAL     ACCESS:    3685798  HIT:    3685474  MISS:        324
L2C LOAD      ACCESS:      24382  HIT:      24322  MISS:         60
L2C RFO       ACCESS:         94  HIT:         91  MISS:          3
L2C PREFETCH  ACCESS:    3660974  HIT:    3660713  MISS:        261
L2C WRITEBACK ACCESS:        348  HIT:        348  MISS:          0
L2C PREFETCH  REQUESTED:    2157228  ISSUED:    2157224  USEFUL:         70  USELESS:        136
L2C AVERAGE MISS LATENCY: 142.392 cycles
LLC TOTAL     ACCESS:     255814  HIT:     255145  MISS:        669
LLC LOAD      ACCESS:         60  HIT:         44  MISS:         16
LLC RFO       ACCESS:          3  HIT:          1  MISS:          2
LLC PREFETCH  ACCESS:     255658  HIT:     255011  MISS:        647
LLC WRITEBACK ACCESS:         93  HIT:         89  MISS:          4
LLC PREFETCH  REQUESTED:          0  ISSUED:          0  USEFUL:          6  USELESS:        142
LLC AVERAGE MISS LATENCY: 496.918 cycles
Major fault: 0 Minor fault: 1888
CPU 0 L1I EPI prefetcher final stats
CPU 0 L1D next line prefetcher final stats

DRAM Statistics
 CHANNEL 0
 RQ ROW_BUFFER_HIT:        156  ROW_BUFFER_MISS:        509
 DBUS_CONGESTED:        472
 WQ ROW_BUFFER_HIT:         72  ROW_BUFFER_MISS:        383  FULL:          0

 AVG_CONGESTED_CYCLE: 6

CPU 0 Branch Prediction Accuracy: 99.9085% MPKI: 0.15428 Average ROB Occupancy at Mispredict: 290.295

Branch types
NOT_BRANCH: 41573150 83.1463%
BRANCH_DIRECT_JUMP: 436254 0.872508%
BRANCH_INDIRECT: 0 0%
BRANCH_CONDITIONAL: 5395897 10.7918%
BRANCH_DIRECT_CALL: 1173391 2.34678%
BRANCH_INDIRECT_CALL: 123912 0.247824%
BRANCH_RETURN: 1297311 2.59462%
BRANCH_OTHER: 0 0%

