Initialize SIGNATURE TABLE
ST_SET: 1
ST_WAY: 256
ST_TAG_BIT: 16
ST_TAG_MASK: ffff

Initialize PATTERN TABLE
PT_SET: 512
PT_WAY: 4
SIG_DELTA_BIT: 7
C_SIG_BIT: 4
C_DELTA_BIT: 4

Initialize PREFETCH FILTER
FILTER_SET: 1024

*** ChampSim Multicore Out-of-Order Simulator ***

Warmup Instructions: 50000000
Simulation Instructions: 50000000
Number of CPUs: 1
LLC sets: 2048
LLC ways: 16
Off-chip DRAM Size: 4096 MB Channels: 1 Width: 64-bit Data Rate: 3200 MT/s

CPU 0 runs /home/sankara2004/240C/hw1/ChampSim_2/ChampSim/ipc1_public/server_030.champsimtrace.xz
LHT KB: 126.25
SCC KB: 1.56
Total KB: 127.81
CPU 0 L1D next line prefetcher
Heartbeat CPU 0 instructions: 10000003 cycles: 3512116 heartbeat IPC: 2.84729 cumulative IPC: 2.84729 (Simulation time: 0 hr 5 min 58 sec) 
Heartbeat CPU 0 instructions: 20000003 cycles: 7022967 heartbeat IPC: 2.84831 cumulative IPC: 2.8478 (Simulation time: 0 hr 11 min 48 sec) 
Heartbeat CPU 0 instructions: 30000000 cycles: 10532288 heartbeat IPC: 2.84955 cumulative IPC: 2.84838 (Simulation time: 0 hr 17 min 42 sec) 
Heartbeat CPU 0 instructions: 40000002 cycles: 14042346 heartbeat IPC: 2.84896 cumulative IPC: 2.84853 (Simulation time: 0 hr 23 min 32 sec) 
Heartbeat CPU 0 instructions: 50000002 cycles: 17554915 heartbeat IPC: 2.84692 cumulative IPC: 2.84821 (Simulation time: 0 hr 29 min 20 sec) 

Warmup complete CPU 0 instructions: 50000002 cycles: 17554915 (Simulation time: 0 hr 29 min 20 sec) 

Heartbeat CPU 0 instructions: 60000000 cycles: 24671165 heartbeat IPC: 1.40523 cumulative IPC: 1.40523 (Simulation time: 0 hr 37 min 1 sec) 
Heartbeat CPU 0 instructions: 70000000 cycles: 31806671 heartbeat IPC: 1.40144 cumulative IPC: 1.40334 (Simulation time: 0 hr 44 min 52 sec) 
Heartbeat CPU 0 instructions: 80000001 cycles: 38920871 heartbeat IPC: 1.40564 cumulative IPC: 1.4041 (Simulation time: 0 hr 52 min 44 sec) 
*** Reached end of trace for Core: 0 Repeating trace: /home/sankara2004/240C/hw1/ChampSim_2/ChampSim/ipc1_public/server_030.champsimtrace.xz
Heartbeat CPU 0 instructions: 90000002 cycles: 46049260 heartbeat IPC: 1.40284 cumulative IPC: 1.40379 (Simulation time: 1 hr 0 min 21 sec) 
Heartbeat CPU 0 instructions: 100000002 cycles: 53141199 heartbeat IPC: 1.41005 cumulative IPC: 1.40504 (Simulation time: 1 hr 7 min 40 sec) 
Finished CPU 0 instructions: 50000000 cycles: 35586284 cumulative IPC: 1.40504 (Simulation time: 1 hr 7 min 40 sec) 

ChampSim completed all CPUs

Region of Interest Statistics

CPU 0 cumulative IPC: 1.40504 instructions: 50000000 cycles: 35586284
L1D TOTAL     ACCESS:   19262291  HIT:   17186506  MISS:    2075785
L1D LOAD      ACCESS:    6813399  HIT:    5760152  MISS:    1053247
L1D RFO       ACCESS:    6179238  HIT:    5893678  MISS:     285560
L1D PREFETCH  ACCESS:    6269654  HIT:    5532676  MISS:     736978
L1D WRITEBACK ACCESS:          0  HIT:          0  MISS:          0
L1D PREFETCH  REQUESTED:    6865198  ISSUED:    6734138  USEFUL:     181298  USELESS:     555773
L1D AVERAGE MISS LATENCY: 18.9555 cycles
L1I TOTAL     ACCESS:   25952273  HIT:   20708699  MISS:    5243574
L1I LOAD      ACCESS:    9681574  HIT:    9181973  MISS:     499601
L1I RFO       ACCESS:          0  HIT:          0  MISS:          0
L1I PREFETCH  ACCESS:   16270699  HIT:   11526726  MISS:    4743973
L1I WRITEBACK ACCESS:          0  HIT:          0  MISS:          0
L1I PREFETCH  REQUESTED:   18829671  ISSUED:   18829671  USEFUL:    2629089  USELESS:    2114888
L1I AVERAGE MISS LATENCY: 15.3403 cycles
L2C TOTAL     ACCESS:   10122990  HIT:    9417664  MISS:     705326
L2C LOAD      ACCESS:     984264  HIT:     842130  MISS:     142134
L2C RFO       ACCESS:     283673  HIT:     232252  MISS:      51421
L2C PREFETCH  ACCESS:    8239564  HIT:    7731966  MISS:     507598
L2C WRITEBACK ACCESS:     615489  HIT:     611316  MISS:       4173
L2C PREFETCH  REQUESTED:    5872874  ISSUED:    5864487  USEFUL:      16298  USELESS:     490792
L2C AVERAGE MISS LATENCY: 33.4995 cycles
LLC TOTAL     ACCESS:    2102912  HIT:    2086747  MISS:      16165
LLC LOAD      ACCESS:     142001  HIT:     139579  MISS:       2422
LLC RFO       ACCESS:      51417  HIT:      49673  MISS:       1744
LLC PREFETCH  ACCESS:    1808162  HIT:    1796221  MISS:      11941
LLC WRITEBACK ACCESS:     101332  HIT:     101274  MISS:         58
LLC PREFETCH  REQUESTED:          0  ISSUED:          0  USEFUL:        823  USELESS:      10556
LLC AVERAGE MISS LATENCY: 144.097 cycles
Major fault: 0 Minor fault: 2056
CPU 0 L1D next line prefetcher final stats

DRAM Statistics
 CHANNEL 0
 RQ ROW_BUFFER_HIT:       5303  ROW_BUFFER_MISS:      10804
 DBUS_CONGESTED:       4991
 WQ ROW_BUFFER_HIT:        129  ROW_BUFFER_MISS:       1920  FULL:          0

 AVG_CONGESTED_CYCLE: 5

CPU 0 Branch Prediction Accuracy: 99.8445% MPKI: 0.29148 Average ROB Occupancy at Mispredict: 166.411

Branch types
NOT_BRANCH: 40628082 81.2562%
BRANCH_DIRECT_JUMP: 490941 0.981882%
BRANCH_INDIRECT: 175854 0.351708%
BRANCH_CONDITIONAL: 6321416 12.6428%
BRANCH_DIRECT_CALL: 1002072 2.00414%
BRANCH_INDIRECT_CALL: 189783 0.379566%
BRANCH_RETURN: 1191851 2.3837%
BRANCH_OTHER: 0 0%

