Initialize SIGNATURE TABLE
ST_SET: 1
ST_WAY: 256
ST_TAG_BIT: 16
ST_TAG_MASK: ffff

Initialize PATTERN TABLE
PT_SET: 512
PT_WAY: 4
SIG_DELTA_BIT: 7
C_SIG_BIT: 4
C_DELTA_BIT: 4

Initialize PREFETCH FILTER
FILTER_SET: 1024

*** ChampSim Multicore Out-of-Order Simulator ***

Warmup Instructions: 50000000
Simulation Instructions: 50000000
Number of CPUs: 1
LLC sets: 2048
LLC ways: 16
Off-chip DRAM Size: 4096 MB Channels: 1 Width: 64-bit Data Rate: 3200 MT/s

CPU 0 runs /home/sankara2004/240C/hw1/ChampSim_2/ChampSim/ipc1_public/spec_gcc_002.champsimtrace.xz
LHT KB: 126.25
SCC KB: 1.56
Total KB: 127.81
CPU 0 L1D next line prefetcher
Heartbeat CPU 0 instructions: 10000002 cycles: 3530122 heartbeat IPC: 2.83276 cumulative IPC: 2.83276 (Simulation time: 0 hr 5 min 52 sec) 
Heartbeat CPU 0 instructions: 20000000 cycles: 7097336 heartbeat IPC: 2.80331 cumulative IPC: 2.81796 (Simulation time: 0 hr 11 min 38 sec) 
Heartbeat CPU 0 instructions: 30000000 cycles: 10719851 heartbeat IPC: 2.76051 cumulative IPC: 2.79855 (Simulation time: 0 hr 17 min 28 sec) 
Heartbeat CPU 0 instructions: 40000000 cycles: 14269952 heartbeat IPC: 2.81682 cumulative IPC: 2.80309 (Simulation time: 0 hr 23 min 13 sec) 
Heartbeat CPU 0 instructions: 50000002 cycles: 17740988 heartbeat IPC: 2.88098 cumulative IPC: 2.81833 (Simulation time: 0 hr 28 min 54 sec) 

Warmup complete CPU 0 instructions: 50000002 cycles: 17740988 (Simulation time: 0 hr 28 min 54 sec) 

Heartbeat CPU 0 instructions: 60000001 cycles: 56173265 heartbeat IPC: 0.260198 cumulative IPC: 0.260198 (Simulation time: 0 hr 36 min 14 sec) 
Heartbeat CPU 0 instructions: 70000001 cycles: 88168347 heartbeat IPC: 0.312548 cumulative IPC: 0.283981 (Simulation time: 0 hr 43 min 45 sec) 
Heartbeat CPU 0 instructions: 80000002 cycles: 136910681 heartbeat IPC: 0.20516 cumulative IPC: 0.251742 (Simulation time: 0 hr 51 min 13 sec) 
Heartbeat CPU 0 instructions: 90000001 cycles: 180974686 heartbeat IPC: 0.226943 cumulative IPC: 0.245047 (Simulation time: 0 hr 58 min 31 sec) 
Heartbeat CPU 0 instructions: 100000000 cycles: 211345603 heartbeat IPC: 0.329262 cumulative IPC: 0.258258 (Simulation time: 1 hr 6 min 3 sec) 
Finished CPU 0 instructions: 50000002 cycles: 193604623 cumulative IPC: 0.258258 (Simulation time: 1 hr 6 min 3 sec) 

ChampSim completed all CPUs

Region of Interest Statistics

CPU 0 cumulative IPC: 0.258258 instructions: 50000002 cycles: 193604623
L1D TOTAL     ACCESS:   18240913  HIT:   13007305  MISS:    5233608
L1D LOAD      ACCESS:    6357773  HIT:    5304145  MISS:    1053628
L1D RFO       ACCESS:    7034072  HIT:    3433271  MISS:    3600801
L1D PREFETCH  ACCESS:    4849068  HIT:    4269889  MISS:     579179
L1D WRITEBACK ACCESS:          0  HIT:          0  MISS:          0
L1D PREFETCH  REQUESTED:    6378267  ISSUED:    6308424  USEFUL:     419481  USELESS:     159914
L1D AVERAGE MISS LATENCY: 332.646 cycles
L1I TOTAL     ACCESS:   23186980  HIT:   21747856  MISS:    1439124
L1I LOAD      ACCESS:   12091333  HIT:   11933959  MISS:     157374
L1I RFO       ACCESS:          0  HIT:          0  MISS:          0
L1I PREFETCH  ACCESS:   11095647  HIT:    9813897  MISS:    1281750
L1I WRITEBACK ACCESS:          0  HIT:          0  MISS:          0
L1I PREFETCH  REQUESTED:   12412035  ISSUED:   12411977  USEFUL:     596785  USELESS:     684870
L1I AVERAGE MISS LATENCY: 44.0156 cycles
L2C TOTAL     ACCESS:   10939681  HIT:    5598896  MISS:    5340785
L2C LOAD      ACCESS:     286701  HIT:     123745  MISS:     162956
L2C RFO       ACCESS:    3599193  HIT:      12507  MISS:    3586686
L2C PREFETCH  ACCESS:    3328285  HIT:    1737316  MISS:    1590969
L2C WRITEBACK ACCESS:    3725502  HIT:    3725328  MISS:        174
L2C PREFETCH  REQUESTED:    3173023  ISSUED:    3172726  USEFUL:      28222  USELESS:    1562920
L2C AVERAGE MISS LATENCY: 340.234 cycles
LLC TOTAL     ACCESS:   10036763  HIT:    6270094  MISS:    3766669
LLC LOAD      ACCESS:     162783  HIT:      99352  MISS:      63431
LLC RFO       ACCESS:    3586686  HIT:     634516  MISS:    2952170
LLC PREFETCH  ACCESS:    2619861  HIT:    1868793  MISS:     751068
LLC WRITEBACK ACCESS:    3667433  HIT:    3667433  MISS:          0
LLC PREFETCH  REQUESTED:          0  ISSUED:          0  USEFUL:     145677  USELESS:     601377
LLC AVERAGE MISS LATENCY: 462.297 cycles
Major fault: 0 Minor fault: 4159
CPU 0 L1D next line prefetcher final stats

DRAM Statistics
 CHANNEL 0
 RQ ROW_BUFFER_HIT:    1005022  ROW_BUFFER_MISS:    2758435
 DBUS_CONGESTED:    5441581
 WQ ROW_BUFFER_HIT:     929233  ROW_BUFFER_MISS:    2201040  FULL:          0

 AVG_CONGESTED_CYCLE: 6

CPU 0 Branch Prediction Accuracy: 99.5987% MPKI: 0.82446 Average ROB Occupancy at Mispredict: 128.862

Branch types
NOT_BRANCH: 39726805 79.4536%
BRANCH_DIRECT_JUMP: 391438 0.782876%
BRANCH_INDIRECT: 62076 0.124152%
BRANCH_CONDITIONAL: 8421541 16.8431%
BRANCH_DIRECT_CALL: 672962 1.34592%
BRANCH_INDIRECT_CALL: 26115 0.05223%
BRANCH_RETURN: 699082 1.39816%
BRANCH_OTHER: 0 0%

