Initialize SIGNATURE TABLE
ST_SET: 1
ST_WAY: 256
ST_TAG_BIT: 16
ST_TAG_MASK: ffff

Initialize PATTERN TABLE
PT_SET: 512
PT_WAY: 4
SIG_DELTA_BIT: 7
C_SIG_BIT: 4
C_DELTA_BIT: 4

Initialize PREFETCH FILTER
FILTER_SET: 1024

*** ChampSim Multicore Out-of-Order Simulator ***

Warmup Instructions: 50000000
Simulation Instructions: 50000000
Number of CPUs: 1
LLC sets: 2048
LLC ways: 16
Off-chip DRAM Size: 4096 MB Channels: 1 Width: 64-bit Data Rate: 3200 MT/s

CPU 0 runs /home/sankara2004/240C/hw1/ChampSim_2/ChampSim/ipc1_public/spec_gobmk_001.champsimtrace.xz
CPU 0 EPI prefetcher
CPU 0 L1D next line prefetcher
Heartbeat CPU 0 instructions: 10000003 cycles: 3508643 heartbeat IPC: 2.85011 cumulative IPC: 2.85011 (Simulation time: 0 hr 0 min 32 sec) 
Heartbeat CPU 0 instructions: 20000002 cycles: 6990169 heartbeat IPC: 2.8723 cumulative IPC: 2.86116 (Simulation time: 0 hr 1 min 6 sec) 
Heartbeat CPU 0 instructions: 30000002 cycles: 10509965 heartbeat IPC: 2.84107 cumulative IPC: 2.85443 (Simulation time: 0 hr 1 min 39 sec) 
Heartbeat CPU 0 instructions: 40000001 cycles: 14030079 heartbeat IPC: 2.84082 cumulative IPC: 2.85102 (Simulation time: 0 hr 2 min 13 sec) 
Heartbeat CPU 0 instructions: 50000001 cycles: 17570999 heartbeat IPC: 2.82412 cumulative IPC: 2.8456 (Simulation time: 0 hr 2 min 47 sec) 

Warmup complete CPU 0 instructions: 50000001 cycles: 17570999 (Simulation time: 0 hr 2 min 47 sec) 

Heartbeat CPU 0 instructions: 60000000 cycles: 26354188 heartbeat IPC: 1.13854 cumulative IPC: 1.13854 (Simulation time: 0 hr 3 min 28 sec) 
Heartbeat CPU 0 instructions: 70000002 cycles: 34792493 heartbeat IPC: 1.18507 cumulative IPC: 1.16134 (Simulation time: 0 hr 4 min 9 sec) 
Heartbeat CPU 0 instructions: 80000003 cycles: 43650868 heartbeat IPC: 1.12888 cumulative IPC: 1.15031 (Simulation time: 0 hr 4 min 49 sec) 
Heartbeat CPU 0 instructions: 90000001 cycles: 52183165 heartbeat IPC: 1.17202 cumulative IPC: 1.15566 (Simulation time: 0 hr 5 min 28 sec) 
Heartbeat CPU 0 instructions: 100000003 cycles: 61031104 heartbeat IPC: 1.13021 cumulative IPC: 1.15048 (Simulation time: 0 hr 6 min 9 sec) 
Finished CPU 0 instructions: 50000002 cycles: 43460105 cumulative IPC: 1.15048 (Simulation time: 0 hr 6 min 9 sec) 

ChampSim completed all CPUs

Region of Interest Statistics

CPU 0 cumulative IPC: 1.15048 instructions: 50000002 cycles: 43460105
L1D TOTAL     ACCESS:   17997802  HIT:   17618272  MISS:     379530
L1D LOAD      ACCESS:    7217373  HIT:    7083310  MISS:     134063
L1D RFO       ACCESS:    3701543  HIT:    3596982  MISS:     104561
L1D PREFETCH  ACCESS:    7078886  HIT:    6937980  MISS:     140906
L1D WRITEBACK ACCESS:          0  HIT:          0  MISS:          0
L1D PREFETCH  REQUESTED:    7222962  ISSUED:    7140197  USEFUL:      46220  USELESS:      94692
L1D AVERAGE MISS LATENCY: 34.0404 cycles
L1I TOTAL     ACCESS:   52503291  HIT:   50626730  MISS:    1876561
L1I LOAD      ACCESS:    8962683  HIT:    8881269  MISS:      81414
L1I RFO       ACCESS:          0  HIT:          0  MISS:          0
L1I PREFETCH  ACCESS:   43540608  HIT:   41745461  MISS:    1795147
L1I WRITEBACK ACCESS:          0  HIT:          0  MISS:          0
L1I PREFETCH  REQUESTED:   60751151  ISSUED:   60751151  USEFUL:     746255  USELESS:    1048897
L1I AVERAGE MISS LATENCY: 15.1877 cycles
L2C TOTAL     ACCESS:    3574838  HIT:    3440228  MISS:     134610
L2C LOAD      ACCESS:     179782  HIT:     144336  MISS:      35446
L2C RFO       ACCESS:     104197  HIT:      68491  MISS:      35706
L2C PREFETCH  ACCESS:    3151568  HIT:    3088253  MISS:      63315
L2C WRITEBACK ACCESS:     139291  HIT:     139148  MISS:        143
L2C PREFETCH  REQUESTED:    3023917  ISSUED:    3022578  USEFUL:       4894  USELESS:      58763
L2C AVERAGE MISS LATENCY: 63.0732 cycles
LLC TOTAL     ACCESS:     301145  HIT:     260591  MISS:      40554
LLC LOAD      ACCESS:      35443  HIT:      27264  MISS:       8179
LLC RFO       ACCESS:      35705  HIT:      28444  MISS:       7261
LLC PREFETCH  ACCESS:     183270  HIT:     158467  MISS:      24803
LLC WRITEBACK ACCESS:      46727  HIT:      46416  MISS:        311
LLC PREFETCH  REQUESTED:          0  ISSUED:          0  USEFUL:       1418  USELESS:      21458
LLC AVERAGE MISS LATENCY: 176.485 cycles
Major fault: 0 Minor fault: 4157
CPU 0 L1I EPI prefetcher final stats
CPU 0 L1D next line prefetcher final stats

DRAM Statistics
 CHANNEL 0
 RQ ROW_BUFFER_HIT:       5178  ROW_BUFFER_MISS:      35065
 DBUS_CONGESTED:      25135
 WQ ROW_BUFFER_HIT:       1546  ROW_BUFFER_MISS:      15894  FULL:          0

 AVG_CONGESTED_CYCLE: 5

CPU 0 Branch Prediction Accuracy: 94.7729% MPKI: 9.72684 Average ROB Occupancy at Mispredict: 54.0083

Branch types
NOT_BRANCH: 40695386 81.3908%
BRANCH_DIRECT_JUMP: 422107 0.844214%
BRANCH_INDIRECT: 65 0.00013%
BRANCH_CONDITIONAL: 8105005 16.21%
BRANCH_DIRECT_CALL: 374913 0.749826%
BRANCH_INDIRECT_CALL: 13657 0.027314%
BRANCH_RETURN: 388556 0.777112%
BRANCH_OTHER: 0 0%

