Initialize SIGNATURE TABLE
ST_SET: 1
ST_WAY: 256
ST_TAG_BIT: 16
ST_TAG_MASK: ffff

Initialize PATTERN TABLE
PT_SET: 512
PT_WAY: 4
SIG_DELTA_BIT: 7
C_SIG_BIT: 4
C_DELTA_BIT: 4

Initialize PREFETCH FILTER
FILTER_SET: 1024

*** ChampSim Multicore Out-of-Order Simulator ***

Warmup Instructions: 50000000
Simulation Instructions: 50000000
Number of CPUs: 1
LLC sets: 2048
LLC ways: 16
Off-chip DRAM Size: 4096 MB Channels: 1 Width: 64-bit Data Rate: 3200 MT/s

CPU 0 runs /home/sankara2004/240C/hw1/ChampSim_2/ChampSim/ipc1_public/spec_perlbench_001.champsimtrace.xz
LHT KB: 126.25
SCC KB: 1.56
Total KB: 127.81
CPU 0 L1D next line prefetcher
Heartbeat CPU 0 instructions: 10000000 cycles: 3275597 heartbeat IPC: 3.05288 cumulative IPC: 3.05288 (Simulation time: 0 hr 5 min 42 sec) 
Heartbeat CPU 0 instructions: 20000000 cycles: 6539611 heartbeat IPC: 3.06371 cumulative IPC: 3.05829 (Simulation time: 0 hr 11 min 21 sec) 
Heartbeat CPU 0 instructions: 30000002 cycles: 9855686 heartbeat IPC: 3.01561 cumulative IPC: 3.04393 (Simulation time: 0 hr 17 min 5 sec) 
Heartbeat CPU 0 instructions: 40000002 cycles: 13110999 heartbeat IPC: 3.0719 cumulative IPC: 3.05087 (Simulation time: 0 hr 22 min 43 sec) 
Heartbeat CPU 0 instructions: 50000001 cycles: 16384702 heartbeat IPC: 3.05464 cumulative IPC: 3.05163 (Simulation time: 0 hr 28 min 20 sec) 

Warmup complete CPU 0 instructions: 50000001 cycles: 16384702 (Simulation time: 0 hr 28 min 20 sec) 

Heartbeat CPU 0 instructions: 60000001 cycles: 24625278 heartbeat IPC: 1.21351 cumulative IPC: 1.21351 (Simulation time: 0 hr 35 min 42 sec) 
Heartbeat CPU 0 instructions: 70000003 cycles: 32757523 heartbeat IPC: 1.22967 cumulative IPC: 1.22154 (Simulation time: 0 hr 43 min 13 sec) 
Heartbeat CPU 0 instructions: 80000000 cycles: 41183379 heartbeat IPC: 1.18682 cumulative IPC: 1.20974 (Simulation time: 0 hr 50 min 48 sec) 
Heartbeat CPU 0 instructions: 90000000 cycles: 46900663 heartbeat IPC: 1.74908 cumulative IPC: 1.31079 (Simulation time: 0 hr 58 min 8 sec) 
Heartbeat CPU 0 instructions: 100000002 cycles: 52756206 heartbeat IPC: 1.70778 cumulative IPC: 1.3747 (Simulation time: 1 hr 5 min 14 sec) 
Finished CPU 0 instructions: 50000001 cycles: 36371504 cumulative IPC: 1.3747 (Simulation time: 1 hr 5 min 14 sec) 

ChampSim completed all CPUs

Region of Interest Statistics

CPU 0 cumulative IPC: 1.3747 instructions: 50000001 cycles: 36371504
L1D TOTAL     ACCESS:   20705810  HIT:   20290722  MISS:     415088
L1D LOAD      ACCESS:    7182335  HIT:    6968667  MISS:     213668
L1D RFO       ACCESS:    6542383  HIT:    6523867  MISS:      18516
L1D PREFETCH  ACCESS:    6981092  HIT:    6798188  MISS:     182904
L1D WRITEBACK ACCESS:          0  HIT:          0  MISS:          0
L1D PREFETCH  REQUESTED:    7198192  ISSUED:    7082000  USEFUL:      55227  USELESS:     127672
L1D AVERAGE MISS LATENCY: 58.5457 cycles
L1I TOTAL     ACCESS:   16362188  HIT:   15767500  MISS:     594688
L1I LOAD      ACCESS:    9131503  HIT:    9005333  MISS:     126170
L1I RFO       ACCESS:          0  HIT:          0  MISS:          0
L1I PREFETCH  ACCESS:    7230685  HIT:    6762167  MISS:     468518
L1I WRITEBACK ACCESS:          0  HIT:          0  MISS:          0
L1I PREFETCH  REQUESTED:    8150557  ISSUED:    8150557  USEFUL:     286478  USELESS:     182040
L1I AVERAGE MISS LATENCY: 14.4842 cycles
L2C TOTAL     ACCESS:    1377169  HIT:    1208121  MISS:     169048
L2C LOAD      ACCESS:     220377  HIT:     144105  MISS:      76272
L2C RFO       ACCESS:      18278  HIT:      12773  MISS:       5505
L2C PREFETCH  ACCESS:    1059573  HIT:     972780  MISS:      86793
L2C WRITEBACK ACCESS:      78941  HIT:      78463  MISS:        478
L2C PREFETCH  REQUESTED:     746545  ISSUED:     746535  USEFUL:       5103  USELESS:      81656
L2C AVERAGE MISS LATENCY: 120.838 cycles
LLC TOTAL     ACCESS:     378360  HIT:     238295  MISS:     140065
LLC LOAD      ACCESS:      76269  HIT:      28541  MISS:      47728
LLC RFO       ACCESS:       5505  HIT:       2430  MISS:       3075
LLC PREFETCH  ACCESS:     270852  HIT:     182054  MISS:      88798
LLC WRITEBACK ACCESS:      25734  HIT:      25270  MISS:        464
LLC PREFETCH  REQUESTED:          0  ISSUED:          0  USEFUL:      13011  USELESS:      76088
LLC AVERAGE MISS LATENCY: 160.28 cycles
Major fault: 0 Minor fault: 6370
CPU 0 L1D next line prefetcher final stats

DRAM Statistics
 CHANNEL 0
 RQ ROW_BUFFER_HIT:      32427  ROW_BUFFER_MISS:     107173
 DBUS_CONGESTED:      57624
 WQ ROW_BUFFER_HIT:       4113  ROW_BUFFER_MISS:      13126  FULL:          0

 AVG_CONGESTED_CYCLE: 4

CPU 0 Branch Prediction Accuracy: 98.7418% MPKI: 2.47758 Average ROB Occupancy at Mispredict: 78.8607

Branch types
NOT_BRANCH: 40154100 80.3082%
BRANCH_DIRECT_JUMP: 817094 1.63419%
BRANCH_INDIRECT: 303787 0.607574%
BRANCH_CONDITIONAL: 7492103 14.9842%
BRANCH_DIRECT_CALL: 471777 0.943554%
BRANCH_INDIRECT_CALL: 144546 0.289092%
BRANCH_RETURN: 616324 1.23265%
BRANCH_OTHER: 0 0%

