Initialize SIGNATURE TABLE
ST_SET: 1
ST_WAY: 256
ST_TAG_BIT: 16
ST_TAG_MASK: ffff

Initialize PATTERN TABLE
PT_SET: 512
PT_WAY: 4
SIG_DELTA_BIT: 7
C_SIG_BIT: 4
C_DELTA_BIT: 4

Initialize PREFETCH FILTER
FILTER_SET: 1024

*** ChampSim Multicore Out-of-Order Simulator ***

Warmup Instructions: 50000000
Simulation Instructions: 50000000
Number of CPUs: 1
LLC sets: 2048
LLC ways: 16
Off-chip DRAM Size: 4096 MB Channels: 1 Width: 64-bit Data Rate: 3200 MT/s

CPU 0 runs /home/sankara2004/240C/hw1/ChampSim_2/ChampSim/ipc1_public/spec_gobmk_001.champsimtrace.xz
LHT KB: 126.25
SCC KB: 1.56
Total KB: 127.81
CPU 0 L1D next line prefetcher
Heartbeat CPU 0 instructions: 10000003 cycles: 3509302 heartbeat IPC: 2.84957 cumulative IPC: 2.84957 (Simulation time: 0 hr 5 min 40 sec) 
Heartbeat CPU 0 instructions: 20000002 cycles: 6991087 heartbeat IPC: 2.87209 cumulative IPC: 2.86079 (Simulation time: 0 hr 11 min 18 sec) 
Heartbeat CPU 0 instructions: 30000002 cycles: 10510309 heartbeat IPC: 2.84154 cumulative IPC: 2.85434 (Simulation time: 0 hr 17 min 0 sec) 
Heartbeat CPU 0 instructions: 40000001 cycles: 14029577 heartbeat IPC: 2.8415 cumulative IPC: 2.85112 (Simulation time: 0 hr 22 min 38 sec) 
Heartbeat CPU 0 instructions: 50000001 cycles: 17569805 heartbeat IPC: 2.82468 cumulative IPC: 2.84579 (Simulation time: 0 hr 28 min 15 sec) 

Warmup complete CPU 0 instructions: 50000001 cycles: 17569805 (Simulation time: 0 hr 28 min 15 sec) 

Heartbeat CPU 0 instructions: 60000000 cycles: 26351231 heartbeat IPC: 1.13877 cumulative IPC: 1.13877 (Simulation time: 0 hr 35 min 37 sec) 
Heartbeat CPU 0 instructions: 70000002 cycles: 34791444 heartbeat IPC: 1.1848 cumulative IPC: 1.16133 (Simulation time: 0 hr 43 min 6 sec) 
Heartbeat CPU 0 instructions: 80000003 cycles: 43648686 heartbeat IPC: 1.12902 cumulative IPC: 1.15036 (Simulation time: 0 hr 50 min 41 sec) 
Heartbeat CPU 0 instructions: 90000001 cycles: 52176549 heartbeat IPC: 1.17263 cumulative IPC: 1.15584 (Simulation time: 0 hr 58 min 3 sec) 
Heartbeat CPU 0 instructions: 100000003 cycles: 61020460 heartbeat IPC: 1.13072 cumulative IPC: 1.15073 (Simulation time: 1 hr 5 min 13 sec) 
Finished CPU 0 instructions: 50000002 cycles: 43450655 cumulative IPC: 1.15073 (Simulation time: 1 hr 5 min 13 sec) 

ChampSim completed all CPUs

Region of Interest Statistics

CPU 0 cumulative IPC: 1.15073 instructions: 50000002 cycles: 43450655
L1D TOTAL     ACCESS:   17998365  HIT:   17618803  MISS:     379562
L1D LOAD      ACCESS:    7217702  HIT:    7082088  MISS:     135614
L1D RFO       ACCESS:    3702481  HIT:    3597914  MISS:     104567
L1D PREFETCH  ACCESS:    7078182  HIT:    6938801  MISS:     139381
L1D WRITEBACK ACCESS:          0  HIT:          0  MISS:          0
L1D PREFETCH  REQUESTED:    7223150  ISSUED:    7140365  USEFUL:      44657  USELESS:      94729
L1D AVERAGE MISS LATENCY: 33.071 cycles
L1I TOTAL     ACCESS:   17887011  HIT:   17018344  MISS:     868667
L1I LOAD      ACCESS:    8929000  HIT:    8791253  MISS:     137747
L1I RFO       ACCESS:          0  HIT:          0  MISS:          0
L1I PREFETCH  ACCESS:    8958011  HIT:    8227091  MISS:     730920
L1I WRITEBACK ACCESS:          0  HIT:          0  MISS:          0
L1I PREFETCH  REQUESTED:   10064552  ISSUED:   10064552  USEFUL:     443042  USELESS:     287857
L1I AVERAGE MISS LATENCY: 13.0166 cycles
L2C TOTAL     ACCESS:    1780050  HIT:    1652464  MISS:     127586
L2C LOAD      ACCESS:     131634  HIT:      97153  MISS:      34481
L2C RFO       ACCESS:     104215  HIT:      69055  MISS:      35160
L2C PREFETCH  ACCESS:    1404897  HIT:    1347021  MISS:      57876
L2C WRITEBACK ACCESS:     139304  HIT:     139235  MISS:         69
L2C PREFETCH  REQUESTED:     734368  ISSUED:     734347  USEFUL:       4262  USELESS:      53815
L2C AVERAGE MISS LATENCY: 62.4703 cycles
LLC TOTAL     ACCESS:     268320  HIT:     235758  MISS:      32562
LLC LOAD      ACCESS:      34479  HIT:      26437  MISS:       8042
LLC RFO       ACCESS:      35160  HIT:      29928  MISS:       5232
LLC PREFETCH  ACCESS:     152582  HIT:     133495  MISS:      19087
LLC WRITEBACK ACCESS:      46099  HIT:      45898  MISS:        201
LLC PREFETCH  REQUESTED:          0  ISSUED:          0  USEFUL:       1185  USELESS:      16905
LLC AVERAGE MISS LATENCY: 178.58 cycles
Major fault: 0 Minor fault: 4166
CPU 0 L1D next line prefetcher final stats

DRAM Statistics
 CHANNEL 0
 RQ ROW_BUFFER_HIT:       3694  ROW_BUFFER_MISS:      28665
 DBUS_CONGESTED:      17760
 WQ ROW_BUFFER_HIT:       1057  ROW_BUFFER_MISS:      13502  FULL:          0

 AVG_CONGESTED_CYCLE: 4

CPU 0 Branch Prediction Accuracy: 94.7729% MPKI: 9.72684 Average ROB Occupancy at Mispredict: 53.8266

Branch types
NOT_BRANCH: 40695383 81.3908%
BRANCH_DIRECT_JUMP: 422107 0.844214%
BRANCH_INDIRECT: 65 0.00013%
BRANCH_CONDITIONAL: 8105005 16.21%
BRANCH_DIRECT_CALL: 374913 0.749826%
BRANCH_INDIRECT_CALL: 13657 0.027314%
BRANCH_RETURN: 388556 0.777112%
BRANCH_OTHER: 0 0%

