Initialize SIGNATURE TABLE
ST_SET: 1
ST_WAY: 256
ST_TAG_BIT: 16
ST_TAG_MASK: ffff

Initialize PATTERN TABLE
PT_SET: 512
PT_WAY: 4
SIG_DELTA_BIT: 7
C_SIG_BIT: 4
C_DELTA_BIT: 4

Initialize PREFETCH FILTER
FILTER_SET: 1024

*** ChampSim Multicore Out-of-Order Simulator ***

Warmup Instructions: 50000000
Simulation Instructions: 50000000
Number of CPUs: 1
LLC sets: 2048
LLC ways: 16
Off-chip DRAM Size: 4096 MB Channels: 1 Width: 64-bit Data Rate: 3200 MT/s

CPU 0 runs /home/sankara2004/240C/hw1/ChampSim_2/ChampSim/ipc1_public/spec_perlbench_001.champsimtrace.xz
LHT KB: 252.50
SCC KB: 1.56
Total KB: 254.06
CPU 0 L1D next line prefetcher
Heartbeat CPU 0 instructions: 10000000 cycles: 3275821 heartbeat IPC: 3.05267 cumulative IPC: 3.05267 (Simulation time: 0 hr 5 min 56 sec) 
Heartbeat CPU 0 instructions: 20000000 cycles: 6540439 heartbeat IPC: 3.06315 cumulative IPC: 3.0579 (Simulation time: 0 hr 11 min 40 sec) 
Heartbeat CPU 0 instructions: 30000002 cycles: 9857104 heartbeat IPC: 3.01508 cumulative IPC: 3.04349 (Simulation time: 0 hr 17 min 24 sec) 
Heartbeat CPU 0 instructions: 40000002 cycles: 13112490 heartbeat IPC: 3.07183 cumulative IPC: 3.05053 (Simulation time: 0 hr 23 min 7 sec) 
Heartbeat CPU 0 instructions: 50000001 cycles: 16386234 heartbeat IPC: 3.05461 cumulative IPC: 3.05134 (Simulation time: 0 hr 28 min 47 sec) 

Warmup complete CPU 0 instructions: 50000001 cycles: 16386234 (Simulation time: 0 hr 28 min 47 sec) 

Heartbeat CPU 0 instructions: 60000001 cycles: 24622201 heartbeat IPC: 1.21419 cumulative IPC: 1.21419 (Simulation time: 0 hr 36 min 20 sec) 
Heartbeat CPU 0 instructions: 70000003 cycles: 32737680 heartbeat IPC: 1.23221 cumulative IPC: 1.22313 (Simulation time: 0 hr 44 min 1 sec) 
Heartbeat CPU 0 instructions: 80000000 cycles: 41180057 heartbeat IPC: 1.1845 cumulative IPC: 1.20998 (Simulation time: 0 hr 51 min 49 sec) 
Heartbeat CPU 0 instructions: 90000000 cycles: 46899113 heartbeat IPC: 1.74854 cumulative IPC: 1.31092 (Simulation time: 0 hr 59 min 24 sec) 
Heartbeat CPU 0 instructions: 100000002 cycles: 52752803 heartbeat IPC: 1.70832 cumulative IPC: 1.37489 (Simulation time: 1 hr 6 min 50 sec) 
Finished CPU 0 instructions: 50000001 cycles: 36366569 cumulative IPC: 1.37489 (Simulation time: 1 hr 6 min 50 sec) 

ChampSim completed all CPUs

Region of Interest Statistics

CPU 0 cumulative IPC: 1.37489 instructions: 50000001 cycles: 36366569
L1D TOTAL     ACCESS:   20699221  HIT:   20284129  MISS:     415092
L1D LOAD      ACCESS:    7179211  HIT:    6965501  MISS:     213710
L1D RFO       ACCESS:    6542009  HIT:    6523494  MISS:      18515
L1D PREFETCH  ACCESS:    6978001  HIT:    6795134  MISS:     182867
L1D WRITEBACK ACCESS:          0  HIT:          0  MISS:          0
L1D PREFETCH  REQUESTED:    7195063  ISSUED:    7078960  USEFUL:      55186  USELESS:     127676
L1D AVERAGE MISS LATENCY: 58.8436 cycles
L1I TOTAL     ACCESS:   17693625  HIT:   16819690  MISS:     873935
L1I LOAD      ACCESS:    9142603  HIT:    9036061  MISS:     106542
L1I RFO       ACCESS:          0  HIT:          0  MISS:          0
L1I PREFETCH  ACCESS:    8551022  HIT:    7783629  MISS:     767393
L1I WRITEBACK ACCESS:          0  HIT:          0  MISS:          0
L1I PREFETCH  REQUESTED:    9582051  ISSUED:    9582051  USEFUL:     383751  USELESS:     383650
L1I AVERAGE MISS LATENCY: 15.0041 cycles
L2C TOTAL     ACCESS:    1736705  HIT:    1565383  MISS:     171322
L2C LOAD      ACCESS:     219184  HIT:     142114  MISS:      77070
L2C RFO       ACCESS:      18273  HIT:      12726  MISS:       5547
L2C PREFETCH  ACCESS:    1420309  HIT:    1332073  MISS:      88236
L2C WRITEBACK ACCESS:      78939  HIT:      78470  MISS:        469
L2C PREFETCH  REQUESTED:     909405  ISSUED:     909379  USEFUL:       5311  USELESS:      82846
L2C AVERAGE MISS LATENCY: 119.982 cycles
LLC TOTAL     ACCESS:     408767  HIT:     268314  MISS:     140453
LLC LOAD      ACCESS:      77070  HIT:      29063  MISS:      48007
LLC RFO       ACCESS:       5547  HIT:       2460  MISS:       3087
LLC PREFETCH  ACCESS:     300239  HIT:     211322  MISS:      88917
LLC WRITEBACK ACCESS:      25911  HIT:      25469  MISS:        442
LLC PREFETCH  REQUESTED:          0  ISSUED:          0  USEFUL:      12785  USELESS:      76416
LLC AVERAGE MISS LATENCY: 160.729 cycles
Major fault: 0 Minor fault: 6371
CPU 0 L1D next line prefetcher final stats

DRAM Statistics
 CHANNEL 0
 RQ ROW_BUFFER_HIT:      32160  ROW_BUFFER_MISS:     107848
 DBUS_CONGESTED:      57501
 WQ ROW_BUFFER_HIT:       4179  ROW_BUFFER_MISS:      13126  FULL:          0

 AVG_CONGESTED_CYCLE: 4

CPU 0 Branch Prediction Accuracy: 98.7418% MPKI: 2.47758 Average ROB Occupancy at Mispredict: 79.2305

Branch types
NOT_BRANCH: 40154100 80.3082%
BRANCH_DIRECT_JUMP: 817094 1.63419%
BRANCH_INDIRECT: 303787 0.607574%
BRANCH_CONDITIONAL: 7492103 14.9842%
BRANCH_DIRECT_CALL: 471777 0.943554%
BRANCH_INDIRECT_CALL: 144546 0.289092%
BRANCH_RETURN: 616324 1.23265%
BRANCH_OTHER: 0 0%

