Initialize SIGNATURE TABLE
ST_SET: 1
ST_WAY: 256
ST_TAG_BIT: 16
ST_TAG_MASK: ffff

Initialize PATTERN TABLE
PT_SET: 512
PT_WAY: 4
SIG_DELTA_BIT: 7
C_SIG_BIT: 4
C_DELTA_BIT: 4

Initialize PREFETCH FILTER
FILTER_SET: 1024

*** ChampSim Multicore Out-of-Order Simulator ***

Warmup Instructions: 50000000
Simulation Instructions: 50000000
Number of CPUs: 1
LLC sets: 2048
LLC ways: 16
Off-chip DRAM Size: 4096 MB Channels: 1 Width: 64-bit Data Rate: 3200 MT/s

CPU 0 runs /home/sankara2004/240C/hw1/ChampSim_2/ChampSim/ipc1_public/spec_x264_001.champsimtrace.xz
LHT KB: 126.25
SCC KB: 1.56
Total KB: 127.81
CPU 0 L1D next line prefetcher
Heartbeat CPU 0 instructions: 10000002 cycles: 3060089 heartbeat IPC: 3.26788 cumulative IPC: 3.26788 (Simulation time: 0 hr 5 min 40 sec) 
Heartbeat CPU 0 instructions: 20000002 cycles: 6110541 heartbeat IPC: 3.2782 cumulative IPC: 3.27303 (Simulation time: 0 hr 11 min 18 sec) 
Heartbeat CPU 0 instructions: 30000002 cycles: 9146420 heartbeat IPC: 3.29394 cumulative IPC: 3.27997 (Simulation time: 0 hr 16 min 59 sec) 
Heartbeat CPU 0 instructions: 40000000 cycles: 12191240 heartbeat IPC: 3.28427 cumulative IPC: 3.28104 (Simulation time: 0 hr 22 min 36 sec) 
Heartbeat CPU 0 instructions: 50000000 cycles: 15234504 heartbeat IPC: 3.28595 cumulative IPC: 3.28202 (Simulation time: 0 hr 28 min 11 sec) 

Warmup complete CPU 0 instructions: 50000004 cycles: 15234505 (Simulation time: 0 hr 28 min 11 sec) 

Heartbeat CPU 0 instructions: 60000002 cycles: 21188536 heartbeat IPC: 1.67953 cumulative IPC: 1.67953 (Simulation time: 0 hr 35 min 32 sec) 
Heartbeat CPU 0 instructions: 70000000 cycles: 27120712 heartbeat IPC: 1.68572 cumulative IPC: 1.68262 (Simulation time: 0 hr 43 min 1 sec) 
Heartbeat CPU 0 instructions: 80000003 cycles: 33203208 heartbeat IPC: 1.64406 cumulative IPC: 1.66957 (Simulation time: 0 hr 50 min 35 sec) 
Heartbeat CPU 0 instructions: 90000001 cycles: 39263390 heartbeat IPC: 1.65012 cumulative IPC: 1.66466 (Simulation time: 0 hr 57 min 57 sec) 
Heartbeat CPU 0 instructions: 100000002 cycles: 45183727 heartbeat IPC: 1.68909 cumulative IPC: 1.66949 (Simulation time: 1 hr 5 min 9 sec) 
Finished CPU 0 instructions: 50000002 cycles: 29949223 cumulative IPC: 1.66949 (Simulation time: 1 hr 5 min 9 sec) 

ChampSim completed all CPUs

Region of Interest Statistics

CPU 0 cumulative IPC: 1.66949 instructions: 50000002 cycles: 29949223
L1D TOTAL     ACCESS:   12988923  HIT:   12827832  MISS:     161091
L1D LOAD      ACCESS:    5108362  HIT:    5053324  MISS:      55038
L1D RFO       ACCESS:    2880778  HIT:    2846416  MISS:      34362
L1D PREFETCH  ACCESS:    4999783  HIT:    4928092  MISS:      71691
L1D WRITEBACK ACCESS:          0  HIT:          0  MISS:          0
L1D PREFETCH  REQUESTED:    5125327  ISSUED:    5057768  USEFUL:      25819  USELESS:      45681
L1D AVERAGE MISS LATENCY: 41.5167 cycles
L1I TOTAL     ACCESS:   10905953  HIT:   10586375  MISS:     319578
L1I LOAD      ACCESS:    8033855  HIT:    7997083  MISS:      36772
L1I RFO       ACCESS:          0  HIT:          0  MISS:          0
L1I PREFETCH  ACCESS:    2872098  HIT:    2589292  MISS:     282806
L1I WRITEBACK ACCESS:          0  HIT:          0  MISS:          0
L1I PREFETCH  REQUESTED:    3017928  ISSUED:    3017928  USEFUL:     240478  USELESS:      42307
L1I AVERAGE MISS LATENCY: 13.031 cycles
L2C TOTAL     ACCESS:     712985  HIT:     674369  MISS:      38616
L2C LOAD      ACCESS:      57615  HIT:      52434  MISS:       5181
L2C RFO       ACCESS:      34181  HIT:      22066  MISS:      12115
L2C PREFETCH  ACCESS:     578039  HIT:     556870  MISS:      21169
L2C WRITEBACK ACCESS:      43150  HIT:      42999  MISS:        151
L2C PREFETCH  REQUESTED:     425663  ISSUED:     425154  USEFUL:       8905  USELESS:      12555
L2C AVERAGE MISS LATENCY: 111.456 cycles
LLC TOTAL     ACCESS:      97295  HIT:      68202  MISS:      29093
LLC LOAD      ACCESS:       5181  HIT:       2982  MISS:       2199
LLC RFO       ACCESS:      12115  HIT:        482  MISS:      11633
LLC PREFETCH  ACCESS:      66249  HIT:      51062  MISS:      15187
LLC WRITEBACK ACCESS:      13750  HIT:      13676  MISS:         74
LLC PREFETCH  REQUESTED:          0  ISSUED:          0  USEFUL:       1559  USELESS:      14065
LLC AVERAGE MISS LATENCY: 166.196 cycles
Major fault: 0 Minor fault: 1285
CPU 0 L1D next line prefetcher final stats

DRAM Statistics
 CHANNEL 0
 RQ ROW_BUFFER_HIT:       8727  ROW_BUFFER_MISS:      20292
 DBUS_CONGESTED:      12118
 WQ ROW_BUFFER_HIT:       2881  ROW_BUFFER_MISS:       9884  FULL:          0

 AVG_CONGESTED_CYCLE: 6

CPU 0 Branch Prediction Accuracy: 97.1633% MPKI: 1.73704 Average ROB Occupancy at Mispredict: 41.5805

Branch types
NOT_BRANCH: 46937921 93.8758%
BRANCH_DIRECT_JUMP: 170816 0.341632%
BRANCH_INDIRECT: 0 0%
BRANCH_CONDITIONAL: 2532774 5.06555%
BRANCH_DIRECT_CALL: 114227 0.228454%
BRANCH_INDIRECT_CALL: 64863 0.129726%
BRANCH_RETURN: 179089 0.358178%
BRANCH_OTHER: 0 0%

