Initialize SIGNATURE TABLE
ST_SET: 1
ST_WAY: 256
ST_TAG_BIT: 16
ST_TAG_MASK: ffff

Initialize PATTERN TABLE
PT_SET: 512
PT_WAY: 4
SIG_DELTA_BIT: 7
C_SIG_BIT: 4
C_DELTA_BIT: 4

Initialize PREFETCH FILTER
FILTER_SET: 1024

*** ChampSim Multicore Out-of-Order Simulator ***

Warmup Instructions: 50000000
Simulation Instructions: 50000000
Number of CPUs: 1
LLC sets: 2048
LLC ways: 16
Off-chip DRAM Size: 4096 MB Channels: 1 Width: 64-bit Data Rate: 3200 MT/s

CPU 0 runs /home/sankara2004/240C/hw1/ChampSim_2/ChampSim/ipc1_public/spec_gcc_003.champsimtrace.xz
LHT KB: 31.56
SCC KB: 1.56
Total KB: 33.12
CPU 0 L1D next line prefetcher
Heartbeat CPU 0 instructions: 10000001 cycles: 3482724 heartbeat IPC: 2.87132 cumulative IPC: 2.87132 (Simulation time: 0 hr 5 min 47 sec) 
Heartbeat CPU 0 instructions: 20000000 cycles: 6951754 heartbeat IPC: 2.88265 cumulative IPC: 2.87697 (Simulation time: 0 hr 11 min 32 sec) 
Heartbeat CPU 0 instructions: 30000002 cycles: 10397336 heartbeat IPC: 2.90227 cumulative IPC: 2.88535 (Simulation time: 0 hr 17 min 18 sec) 
Heartbeat CPU 0 instructions: 40000000 cycles: 13866356 heartbeat IPC: 2.88266 cumulative IPC: 2.88468 (Simulation time: 0 hr 23 min 2 sec) 
Heartbeat CPU 0 instructions: 50000001 cycles: 17176104 heartbeat IPC: 3.02138 cumulative IPC: 2.91102 (Simulation time: 0 hr 28 min 40 sec) 

Warmup complete CPU 0 instructions: 50000001 cycles: 17176104 (Simulation time: 0 hr 28 min 40 sec) 

Heartbeat CPU 0 instructions: 60000000 cycles: 56617878 heartbeat IPC: 0.253538 cumulative IPC: 0.253538 (Simulation time: 0 hr 35 min 49 sec) 
Heartbeat CPU 0 instructions: 70000000 cycles: 98760523 heartbeat IPC: 0.237289 cumulative IPC: 0.245145 (Simulation time: 0 hr 43 min 1 sec) 
Heartbeat CPU 0 instructions: 80000003 cycles: 141990321 heartbeat IPC: 0.231322 cumulative IPC: 0.240357 (Simulation time: 0 hr 50 min 22 sec) 
Heartbeat CPU 0 instructions: 90000002 cycles: 178407350 heartbeat IPC: 0.274597 cumulative IPC: 0.248091 (Simulation time: 0 hr 57 min 43 sec) 
Heartbeat CPU 0 instructions: 100000000 cycles: 224372708 heartbeat IPC: 0.217555 cumulative IPC: 0.241317 (Simulation time: 1 hr 4 min 56 sec) 
Finished CPU 0 instructions: 50000000 cycles: 207196605 cumulative IPC: 0.241317 (Simulation time: 1 hr 4 min 56 sec) 

ChampSim completed all CPUs

Region of Interest Statistics

CPU 0 cumulative IPC: 0.241317 instructions: 50000000 cycles: 207196605
L1D TOTAL     ACCESS:   16890613  HIT:   11166271  MISS:    5724342
L1D LOAD      ACCESS:    4586016  HIT:    4202862  MISS:     383154
L1D RFO       ACCESS:    8207995  HIT:    3156228  MISS:    5051767
L1D PREFETCH  ACCESS:    4096602  HIT:    3807181  MISS:     289421
L1D WRITEBACK ACCESS:          0  HIT:          0  MISS:          0
L1D PREFETCH  REQUESTED:    4604391  ISSUED:    4545210  USEFUL:     152096  USELESS:     137505
L1D AVERAGE MISS LATENCY: 496.684 cycles
L1I TOTAL     ACCESS:   24568401  HIT:   22728196  MISS:    1840205
L1I LOAD      ACCESS:   11259068  HIT:   11061370  MISS:     197698
L1I RFO       ACCESS:          0  HIT:          0  MISS:          0
L1I PREFETCH  ACCESS:   13309333  HIT:   11666826  MISS:    1642507
L1I WRITEBACK ACCESS:          0  HIT:          0  MISS:          0
L1I PREFETCH  REQUESTED:   15288772  ISSUED:   15288751  USEFUL:     730576  USELESS:     911805
L1I AVERAGE MISS LATENCY: 34.3771 cycles
L2C TOTAL     ACCESS:   13252323  HIT:    7143843  MISS:    6108480
L2C LOAD      ACCESS:     249995  HIT:      74229  MISS:     175766
L2C RFO       ACCESS:    5049946  HIT:       6464  MISS:    5043482
L2C PREFETCH  ACCESS:    2794515  HIT:    1905624  MISS:     888891
L2C WRITEBACK ACCESS:    5157867  HIT:    5157526  MISS:        341
L2C PREFETCH  REQUESTED:    2179212  ISSUED:    2178897  USEFUL:      29679  USELESS:     856300
L2C AVERAGE MISS LATENCY: 461.425 cycles
LLC TOTAL     ACCESS:   12051560  HIT:    7456233  MISS:    4595327
LLC LOAD      ACCESS:     175736  HIT:     133053  MISS:      42683
LLC RFO       ACCESS:    5043482  HIT:     718259  MISS:    4325223
LLC PREFETCH  ACCESS:    1698631  HIT:    1471210  MISS:     227421
LLC WRITEBACK ACCESS:    5133711  HIT:    5133711  MISS:          0
LLC PREFETCH  REQUESTED:          0  ISSUED:          0  USEFUL:      12096  USELESS:     214909
LLC AVERAGE MISS LATENCY: 580.186 cycles
Major fault: 0 Minor fault: 2822
CPU 0 L1D next line prefetcher final stats

DRAM Statistics
 CHANNEL 0
 RQ ROW_BUFFER_HIT:    1368570  ROW_BUFFER_MISS:    3226645
 DBUS_CONGESTED:    8012506
 WQ ROW_BUFFER_HIT:    1159994  ROW_BUFFER_MISS:    3193545  FULL:          0

 AVG_CONGESTED_CYCLE: 6

CPU 0 Branch Prediction Accuracy: 99.665% MPKI: 0.78342 Average ROB Occupancy at Mispredict: 114.709

Branch types
NOT_BRANCH: 38305861 76.6117%
BRANCH_DIRECT_JUMP: 384281 0.768562%
BRANCH_INDIRECT: 71949 0.143898%
BRANCH_CONDITIONAL: 9879826 19.7597%
BRANCH_DIRECT_CALL: 650586 1.30117%
BRANCH_INDIRECT_CALL: 28456 0.056912%
BRANCH_RETURN: 679046 1.35809%
BRANCH_OTHER: 0 0%

