Initialize SIGNATURE TABLE
ST_SET: 1
ST_WAY: 256
ST_TAG_BIT: 16
ST_TAG_MASK: ffff

Initialize PATTERN TABLE
PT_SET: 512
PT_WAY: 4
SIG_DELTA_BIT: 7
C_SIG_BIT: 4
C_DELTA_BIT: 4

Initialize PREFETCH FILTER
FILTER_SET: 1024

*** ChampSim Multicore Out-of-Order Simulator ***

Warmup Instructions: 50000000
Simulation Instructions: 50000000
Number of CPUs: 1
LLC sets: 2048
LLC ways: 16
Off-chip DRAM Size: 4096 MB Channels: 1 Width: 64-bit Data Rate: 3200 MT/s

CPU 0 runs /home/sankara2004/240C/hw1/ChampSim_2/ChampSim/ipc1_public/spec_perlbench_001.champsimtrace.xz
CPU 0 EPI prefetcher
CPU 0 L1D next line prefetcher
Heartbeat CPU 0 instructions: 10000000 cycles: 3276616 heartbeat IPC: 3.05193 cumulative IPC: 3.05193 (Simulation time: 0 hr 6 min 30 sec) 
Heartbeat CPU 0 instructions: 20000000 cycles: 6542594 heartbeat IPC: 3.06187 cumulative IPC: 3.05689 (Simulation time: 0 hr 13 min 1 sec) 
Heartbeat CPU 0 instructions: 30000002 cycles: 9860945 heartbeat IPC: 3.01355 cumulative IPC: 3.0423 (Simulation time: 0 hr 19 min 40 sec) 
Heartbeat CPU 0 instructions: 40000002 cycles: 13117007 heartbeat IPC: 3.07119 cumulative IPC: 3.04948 (Simulation time: 0 hr 26 min 16 sec) 
Heartbeat CPU 0 instructions: 50000001 cycles: 16391040 heartbeat IPC: 3.05434 cumulative IPC: 3.05045 (Simulation time: 0 hr 32 min 51 sec) 

Warmup complete CPU 0 instructions: 50000001 cycles: 16391040 (Simulation time: 0 hr 32 min 51 sec) 

Heartbeat CPU 0 instructions: 60000001 cycles: 24585806 heartbeat IPC: 1.22029 cumulative IPC: 1.22029 (Simulation time: 0 hr 41 min 12 sec) 
Heartbeat CPU 0 instructions: 70000003 cycles: 32620487 heartbeat IPC: 1.2446 cumulative IPC: 1.23233 (Simulation time: 0 hr 49 min 42 sec) 
Heartbeat CPU 0 instructions: 80000000 cycles: 40998623 heartbeat IPC: 1.19358 cumulative IPC: 1.21914 (Simulation time: 0 hr 58 min 37 sec) 
Heartbeat CPU 0 instructions: 90000000 cycles: 46724273 heartbeat IPC: 1.74653 cumulative IPC: 1.31869 (Simulation time: 1 hr 7 min 3 sec) 
Heartbeat CPU 0 instructions: 100000002 cycles: 52594057 heartbeat IPC: 1.70364 cumulative IPC: 1.3811 (Simulation time: 1 hr 15 min 17 sec) 
Finished CPU 0 instructions: 50000001 cycles: 36203017 cumulative IPC: 1.3811 (Simulation time: 1 hr 15 min 17 sec) 

ChampSim completed all CPUs

Region of Interest Statistics

CPU 0 cumulative IPC: 1.3811 instructions: 50000001 cycles: 36203017
L1D TOTAL     ACCESS:   20675396  HIT:   20260299  MISS:     415097
L1D LOAD      ACCESS:    7167597  HIT:    6953716  MISS:     213881
L1D RFO       ACCESS:    6541968  HIT:    6523465  MISS:      18503
L1D PREFETCH  ACCESS:    6965831  HIT:    6783118  MISS:     182713
L1D WRITEBACK ACCESS:          0  HIT:          0  MISS:          0
L1D PREFETCH  REQUESTED:    7183272  ISSUED:    7066791  USEFUL:      55034  USELESS:     127674
L1D AVERAGE MISS LATENCY: 58.1942 cycles
L1I TOTAL     ACCESS:   45313984  HIT:   44299935  MISS:    1014049
L1I LOAD      ACCESS:    9159825  HIT:    9115106  MISS:      44719
L1I RFO       ACCESS:          0  HIT:          0  MISS:          0
L1I PREFETCH  ACCESS:   36154159  HIT:   35184829  MISS:     969330
L1I WRITEBACK ACCESS:          0  HIT:          0  MISS:          0
L1I PREFETCH  REQUESTED:   50111016  ISSUED:   50111016  USEFUL:     475428  USELESS:     493928
L1I AVERAGE MISS LATENCY: 16.6213 cycles
L2C TOTAL     ACCESS:    2057977  HIT:    1885831  MISS:     172146
L2C LOAD      ACCESS:     238378  HIT:     159505  MISS:      78873
L2C RFO       ACCESS:      18259  HIT:      12627  MISS:       5632
L2C PREFETCH  ACCESS:    1722395  HIT:    1635124  MISS:      87271
L2C WRITEBACK ACCESS:      78945  HIT:      78575  MISS:        370
L2C PREFETCH  REQUESTED:    1482018  ISSUED:    1481921  USEFUL:       6607  USELESS:      80548
L2C AVERAGE MISS LATENCY: 117.499 cycles
LLC TOTAL     ACCESS:     419821  HIT:     276539  MISS:     143282
LLC LOAD      ACCESS:      78870  HIT:      31162  MISS:      47708
LLC RFO       ACCESS:       5632  HIT:       2633  MISS:       2999
LLC PREFETCH  ACCESS:     309206  HIT:     217100  MISS:      92106
LLC WRITEBACK ACCESS:      26113  HIT:      25644  MISS:        469
LLC PREFETCH  REQUESTED:          0  ISSUED:          0  USEFUL:      14400  USELESS:      77674
LLC AVERAGE MISS LATENCY: 160.569 cycles
Major fault: 0 Minor fault: 6368
CPU 0 L1I EPI prefetcher final stats
CPU 0 L1D next line prefetcher final stats

DRAM Statistics
 CHANNEL 0
 RQ ROW_BUFFER_HIT:      32500  ROW_BUFFER_MISS:     110312
 DBUS_CONGESTED:      59212
 WQ ROW_BUFFER_HIT:       4090  ROW_BUFFER_MISS:      13207  FULL:          0

 AVG_CONGESTED_CYCLE: 4

CPU 0 Branch Prediction Accuracy: 98.7418% MPKI: 2.47758 Average ROB Occupancy at Mispredict: 80.5789

Branch types
NOT_BRANCH: 40154100 80.3082%
BRANCH_DIRECT_JUMP: 817094 1.63419%
BRANCH_INDIRECT: 303787 0.607574%
BRANCH_CONDITIONAL: 7492103 14.9842%
BRANCH_DIRECT_CALL: 471777 0.943554%
BRANCH_INDIRECT_CALL: 144546 0.289092%
BRANCH_RETURN: 616324 1.23265%
BRANCH_OTHER: 0 0%

