Initialize SIGNATURE TABLE
ST_SET: 1
ST_WAY: 256
ST_TAG_BIT: 16
ST_TAG_MASK: ffff

Initialize PATTERN TABLE
PT_SET: 512
PT_WAY: 4
SIG_DELTA_BIT: 7
C_SIG_BIT: 4
C_DELTA_BIT: 4

Initialize PREFETCH FILTER
FILTER_SET: 1024

*** ChampSim Multicore Out-of-Order Simulator ***

Warmup Instructions: 50000000
Simulation Instructions: 50000000
Number of CPUs: 1
LLC sets: 2048
LLC ways: 16
Off-chip DRAM Size: 4096 MB Channels: 1 Width: 64-bit Data Rate: 3200 MT/s

CPU 0 runs /home/sankara2004/240C/hw1/ChampSim_2/ChampSim/ipc1_public/spec_gobmk_001.champsimtrace.xz
CPU 0 EPI prefetcher
CPU 0 L1D next line prefetcher
Heartbeat CPU 0 instructions: 10000003 cycles: 3507228 heartbeat IPC: 2.85126 cumulative IPC: 2.85126 (Simulation time: 0 hr 6 min 30 sec) 
Heartbeat CPU 0 instructions: 20000002 cycles: 6987859 heartbeat IPC: 2.87304 cumulative IPC: 2.86211 (Simulation time: 0 hr 12 min 59 sec) 
Heartbeat CPU 0 instructions: 30000002 cycles: 10507299 heartbeat IPC: 2.84136 cumulative IPC: 2.85516 (Simulation time: 0 hr 19 min 32 sec) 
Heartbeat CPU 0 instructions: 40000001 cycles: 14026921 heartbeat IPC: 2.84121 cumulative IPC: 2.85166 (Simulation time: 0 hr 26 min 2 sec) 
Heartbeat CPU 0 instructions: 50000001 cycles: 17567400 heartbeat IPC: 2.82448 cumulative IPC: 2.84618 (Simulation time: 0 hr 32 min 31 sec) 

Warmup complete CPU 0 instructions: 50000001 cycles: 17567400 (Simulation time: 0 hr 32 min 31 sec) 

Heartbeat CPU 0 instructions: 60000000 cycles: 26315365 heartbeat IPC: 1.14312 cumulative IPC: 1.14312 (Simulation time: 0 hr 40 min 47 sec) 
Heartbeat CPU 0 instructions: 70000002 cycles: 34718448 heartbeat IPC: 1.19004 cumulative IPC: 1.16611 (Simulation time: 0 hr 49 min 9 sec) 
Heartbeat CPU 0 instructions: 80000003 cycles: 43543615 heartbeat IPC: 1.13312 cumulative IPC: 1.1549 (Simulation time: 0 hr 57 min 38 sec) 
Heartbeat CPU 0 instructions: 90000001 cycles: 52036383 heartbeat IPC: 1.17747 cumulative IPC: 1.16046 (Simulation time: 1 hr 5 min 52 sec) 
Heartbeat CPU 0 instructions: 100000003 cycles: 60846157 heartbeat IPC: 1.1351 cumulative IPC: 1.1553 (Simulation time: 1 hr 13 min 59 sec) 
Finished CPU 0 instructions: 50000002 cycles: 43278757 cumulative IPC: 1.1553 (Simulation time: 1 hr 13 min 59 sec) 

ChampSim completed all CPUs

Region of Interest Statistics

CPU 0 cumulative IPC: 1.1553 instructions: 50000002 cycles: 43278757
L1D TOTAL     ACCESS:   17983269  HIT:   17603734  MISS:     379535
L1D LOAD      ACCESS:    7209898  HIT:    7074929  MISS:     134969
L1D RFO       ACCESS:    3702371  HIT:    3597802  MISS:     104569
L1D PREFETCH  ACCESS:    7071000  HIT:    6931003  MISS:     139997
L1D WRITEBACK ACCESS:          0  HIT:          0  MISS:          0
L1D PREFETCH  REQUESTED:    7215445  ISSUED:    7132691  USEFUL:      45296  USELESS:      94705
L1D AVERAGE MISS LATENCY: 34.0696 cycles
L1I TOTAL     ACCESS:   45574007  HIT:   44276893  MISS:    1297114
L1I LOAD      ACCESS:    8938442  HIT:    8869591  MISS:      68851
L1I RFO       ACCESS:          0  HIT:          0  MISS:          0
L1I PREFETCH  ACCESS:   36635565  HIT:   35407302  MISS:    1228263
L1I WRITEBACK ACCESS:          0  HIT:          0  MISS:          0
L1I PREFETCH  REQUESTED:   50697784  ISSUED:   50697784  USEFUL:     623188  USELESS:     605103
L1I AVERAGE MISS LATENCY: 15.137 cycles
L2C TOTAL     ACCESS:    2625882  HIT:    2497930  MISS:     127952
L2C LOAD      ACCESS:     165499  HIT:     131061  MISS:      34438
L2C RFO       ACCESS:     104189  HIT:      69846  MISS:      34343
L2C PREFETCH  ACCESS:    2216898  HIT:    2157793  MISS:      59105
L2C WRITEBACK ACCESS:     139296  HIT:     139230  MISS:         66
L2C PREFETCH  REQUESTED:    1923676  ISSUED:    1923222  USEFUL:       4602  USELESS:      54786
L2C AVERAGE MISS LATENCY: 65.8367 cycles
LLC TOTAL     ACCESS:     285810  HIT:     245198  MISS:      40612
LLC LOAD      ACCESS:      34436  HIT:      26281  MISS:       8155
LLC RFO       ACCESS:      34343  HIT:      26706  MISS:       7637
LLC PREFETCH  ACCESS:     171877  HIT:     147337  MISS:      24540
LLC WRITEBACK ACCESS:      45154  HIT:      44874  MISS:        280
LLC PREFETCH  REQUESTED:          0  ISSUED:          0  USEFUL:       1353  USELESS:      21100
LLC AVERAGE MISS LATENCY: 178.364 cycles
Major fault: 0 Minor fault: 4157
CPU 0 L1I EPI prefetcher final stats
CPU 0 L1D next line prefetcher final stats

DRAM Statistics
 CHANNEL 0
 RQ ROW_BUFFER_HIT:       5401  ROW_BUFFER_MISS:      34926
 DBUS_CONGESTED:      25557
 WQ ROW_BUFFER_HIT:       1675  ROW_BUFFER_MISS:      16126  FULL:          0

 AVG_CONGESTED_CYCLE: 4

CPU 0 Branch Prediction Accuracy: 94.7729% MPKI: 9.72684 Average ROB Occupancy at Mispredict: 54.2813

Branch types
NOT_BRANCH: 40695383 81.3908%
BRANCH_DIRECT_JUMP: 422107 0.844214%
BRANCH_INDIRECT: 65 0.00013%
BRANCH_CONDITIONAL: 8105005 16.21%
BRANCH_DIRECT_CALL: 374913 0.749826%
BRANCH_INDIRECT_CALL: 13657 0.027314%
BRANCH_RETURN: 388556 0.777112%
BRANCH_OTHER: 0 0%

