Initialize SIGNATURE TABLE
ST_SET: 1
ST_WAY: 256
ST_TAG_BIT: 16
ST_TAG_MASK: ffff

Initialize PATTERN TABLE
PT_SET: 512
PT_WAY: 4
SIG_DELTA_BIT: 7
C_SIG_BIT: 4
C_DELTA_BIT: 4

Initialize PREFETCH FILTER
FILTER_SET: 1024

*** ChampSim Multicore Out-of-Order Simulator ***

Warmup Instructions: 50000000
Simulation Instructions: 50000000
Number of CPUs: 1
LLC sets: 2048
LLC ways: 16
Off-chip DRAM Size: 4096 MB Channels: 1 Width: 64-bit Data Rate: 3200 MT/s

CPU 0 runs /home/sankara2004/240C/hw1/ChampSim_2/ChampSim/ipc1_public/spec_gobmk_002.champsimtrace.xz
CPU 0 EPI prefetcher
CPU 0 L1D next line prefetcher
Heartbeat CPU 0 instructions: 10000001 cycles: 3287536 heartbeat IPC: 3.04179 cumulative IPC: 3.04179 (Simulation time: 0 hr 0 min 33 sec) 
Heartbeat CPU 0 instructions: 20000000 cycles: 6619166 heartbeat IPC: 3.00153 cumulative IPC: 3.02153 (Simulation time: 0 hr 1 min 7 sec) 
Heartbeat CPU 0 instructions: 30000000 cycles: 9957183 heartbeat IPC: 2.99579 cumulative IPC: 3.0129 (Simulation time: 0 hr 1 min 41 sec) 
Heartbeat CPU 0 instructions: 40000000 cycles: 13266684 heartbeat IPC: 3.0216 cumulative IPC: 3.01507 (Simulation time: 0 hr 2 min 15 sec) 
Heartbeat CPU 0 instructions: 50000003 cycles: 16530260 heartbeat IPC: 3.06412 cumulative IPC: 3.02476 (Simulation time: 0 hr 2 min 51 sec) 

Warmup complete CPU 0 instructions: 50000003 cycles: 16530260 (Simulation time: 0 hr 2 min 51 sec) 

Heartbeat CPU 0 instructions: 60000003 cycles: 23954790 heartbeat IPC: 1.34689 cumulative IPC: 1.34689 (Simulation time: 0 hr 3 min 32 sec) 
Heartbeat CPU 0 instructions: 70000001 cycles: 31328747 heartbeat IPC: 1.35612 cumulative IPC: 1.35149 (Simulation time: 0 hr 4 min 12 sec) 
Heartbeat CPU 0 instructions: 80000000 cycles: 38584729 heartbeat IPC: 1.37817 cumulative IPC: 1.36027 (Simulation time: 0 hr 4 min 52 sec) 
Heartbeat CPU 0 instructions: 90000001 cycles: 46133803 heartbeat IPC: 1.32467 cumulative IPC: 1.35119 (Simulation time: 0 hr 5 min 30 sec) 
Heartbeat CPU 0 instructions: 100000003 cycles: 53895546 heartbeat IPC: 1.28837 cumulative IPC: 1.33814 (Simulation time: 0 hr 6 min 10 sec) 
Finished CPU 0 instructions: 50000000 cycles: 37365286 cumulative IPC: 1.33814 (Simulation time: 0 hr 6 min 10 sec) 

ChampSim completed all CPUs

Region of Interest Statistics

CPU 0 cumulative IPC: 1.33814 instructions: 50000000 cycles: 37365286
L1D TOTAL     ACCESS:   17635111  HIT:   17511986  MISS:     123125
L1D LOAD      ACCESS:    6662756  HIT:    6628513  MISS:      34243
L1D RFO       ACCESS:    4387980  HIT:    4345301  MISS:      42679
L1D PREFETCH  ACCESS:    6584375  HIT:    6538172  MISS:      46203
L1D WRITEBACK ACCESS:          0  HIT:          0  MISS:          0
L1D PREFETCH  REQUESTED:    6665213  ISSUED:    6598004  USEFUL:      17132  USELESS:      29255
L1D AVERAGE MISS LATENCY: 50.3558 cycles
L1I TOTAL     ACCESS:   54930591  HIT:   52225736  MISS:    2704855
L1I LOAD      ACCESS:    8875509  HIT:    8762041  MISS:     113468
L1I RFO       ACCESS:          0  HIT:          0  MISS:          0
L1I PREFETCH  ACCESS:   46055082  HIT:   43463695  MISS:    2591387
L1I WRITEBACK ACCESS:          0  HIT:          0  MISS:          0
L1I PREFETCH  REQUESTED:   62032421  ISSUED:   62032421  USEFUL:    1042959  USELESS:    1548407
L1I AVERAGE MISS LATENCY: 14.7008 cycles
L2C TOTAL     ACCESS:    4537663  HIT:    4499002  MISS:      38661
L2C LOAD      ACCESS:     131734  HIT:     118006  MISS:      13728
L2C RFO       ACCESS:      42541  HIT:      39501  MISS:       3040
L2C PREFETCH  ACCESS:    4289182  HIT:    4267485  MISS:      21697
L2C WRITEBACK ACCESS:      74206  HIT:      74010  MISS:        196
L2C PREFETCH  REQUESTED:    4080966  ISSUED:    4080521  USEFUL:       2297  USELESS:      19664
L2C AVERAGE MISS LATENCY: 121.382 cycles
LLC TOTAL     ACCESS:     107100  HIT:      68484  MISS:      38616
LLC LOAD      ACCESS:      13728  HIT:       5279  MISS:       8449
LLC RFO       ACCESS:       3040  HIT:       1444  MISS:       1596
LLC PREFETCH  ACCESS:      72035  HIT:      44151  MISS:      27884
LLC WRITEBACK ACCESS:      18297  HIT:      17610  MISS:        687
LLC PREFETCH  REQUESTED:          0  ISSUED:          0  USEFUL:       2560  USELESS:      24378
LLC AVERAGE MISS LATENCY: 186.712 cycles
Major fault: 0 Minor fault: 2777
CPU 0 L1I EPI prefetcher final stats
CPU 0 L1D next line prefetcher final stats

DRAM Statistics
 CHANNEL 0
 RQ ROW_BUFFER_HIT:       2963  ROW_BUFFER_MISS:      34966
 DBUS_CONGESTED:      23600
 WQ ROW_BUFFER_HIT:        825  ROW_BUFFER_MISS:      14947  FULL:          0

 AVG_CONGESTED_CYCLE: 5

CPU 0 Branch Prediction Accuracy: 93.9974% MPKI: 10.2447 Average ROB Occupancy at Mispredict: 39.8452

Branch types
NOT_BRANCH: 41466048 82.9321%
BRANCH_DIRECT_JUMP: 464313 0.928626%
BRANCH_INDIRECT: 32 6.4e-05%
BRANCH_CONDITIONAL: 7069451 14.1389%
BRANCH_DIRECT_CALL: 499586 0.999172%
BRANCH_INDIRECT_CALL: 342 0.000684%
BRANCH_RETURN: 499906 0.999812%
BRANCH_OTHER: 0 0%

