Initialize SIGNATURE TABLE
ST_SET: 1
ST_WAY: 256
ST_TAG_BIT: 16
ST_TAG_MASK: ffff

Initialize PATTERN TABLE
PT_SET: 512
PT_WAY: 4
SIG_DELTA_BIT: 7
C_SIG_BIT: 4
C_DELTA_BIT: 4

Initialize PREFETCH FILTER
FILTER_SET: 1024

*** ChampSim Multicore Out-of-Order Simulator ***

Warmup Instructions: 50000000
Simulation Instructions: 50000000
Number of CPUs: 1
LLC sets: 2048
LLC ways: 16
Off-chip DRAM Size: 4096 MB Channels: 1 Width: 64-bit Data Rate: 3200 MT/s

CPU 0 runs /home/sankara2004/240C/hw1/ChampSim_2/ChampSim/ipc1_public/spec_gobmk_001.champsimtrace.xz
CPU 0 EPI prefetcher
CPU 0 L1D next line prefetcher
Heartbeat CPU 0 instructions: 10000003 cycles: 3509322 heartbeat IPC: 2.84955 cumulative IPC: 2.84955 (Simulation time: 0 hr 6 min 29 sec) 
Heartbeat CPU 0 instructions: 20000002 cycles: 6991022 heartbeat IPC: 2.87216 cumulative IPC: 2.86081 (Simulation time: 0 hr 13 min 1 sec) 
Heartbeat CPU 0 instructions: 30000002 cycles: 10511064 heartbeat IPC: 2.84088 cumulative IPC: 2.85414 (Simulation time: 0 hr 19 min 42 sec) 
Heartbeat CPU 0 instructions: 40000001 cycles: 14031209 heartbeat IPC: 2.84079 cumulative IPC: 2.85079 (Simulation time: 0 hr 26 min 16 sec) 
Heartbeat CPU 0 instructions: 50000001 cycles: 17572125 heartbeat IPC: 2.82413 cumulative IPC: 2.84542 (Simulation time: 0 hr 32 min 51 sec) 

Warmup complete CPU 0 instructions: 50000001 cycles: 17572125 (Simulation time: 0 hr 32 min 51 sec) 

Heartbeat CPU 0 instructions: 60000000 cycles: 26363470 heartbeat IPC: 1.13748 cumulative IPC: 1.13748 (Simulation time: 0 hr 41 min 11 sec) 
Heartbeat CPU 0 instructions: 70000002 cycles: 34812625 heartbeat IPC: 1.18355 cumulative IPC: 1.16006 (Simulation time: 0 hr 49 min 38 sec) 
Heartbeat CPU 0 instructions: 80000003 cycles: 43676718 heartbeat IPC: 1.12815 cumulative IPC: 1.14922 (Simulation time: 0 hr 58 min 37 sec) 
Heartbeat CPU 0 instructions: 90000001 cycles: 52212548 heartbeat IPC: 1.17153 cumulative IPC: 1.15472 (Simulation time: 1 hr 7 min 5 sec) 
Heartbeat CPU 0 instructions: 100000003 cycles: 61074056 heartbeat IPC: 1.12848 cumulative IPC: 1.14937 (Simulation time: 1 hr 15 min 19 sec) 
Finished CPU 0 instructions: 50000002 cycles: 43501931 cumulative IPC: 1.14937 (Simulation time: 1 hr 15 min 19 sec) 

ChampSim completed all CPUs

Region of Interest Statistics

CPU 0 cumulative IPC: 1.14937 instructions: 50000002 cycles: 43501931
L1D TOTAL     ACCESS:   18009442  HIT:   17629903  MISS:     379539
L1D LOAD      ACCESS:    7222861  HIT:    7088908  MISS:     133953
L1D RFO       ACCESS:    3701983  HIT:    3597443  MISS:     104540
L1D PREFETCH  ACCESS:    7084598  HIT:    6943552  MISS:     141046
L1D WRITEBACK ACCESS:          0  HIT:          0  MISS:          0
L1D PREFETCH  REQUESTED:    7228530  ISSUED:    7145807  USEFUL:      46336  USELESS:      94715
L1D AVERAGE MISS LATENCY: 34.1836 cycles
L1I TOTAL     ACCESS:   54168931  HIT:   51912174  MISS:    2256757
L1I LOAD      ACCESS:    8978140  HIT:    8897102  MISS:      81038
L1I RFO       ACCESS:          0  HIT:          0  MISS:          0
L1I PREFETCH  ACCESS:   45190791  HIT:   43015072  MISS:    2175719
L1I WRITEBACK ACCESS:          0  HIT:          0  MISS:          0
L1I PREFETCH  REQUESTED:   60847457  ISSUED:   60847457  USEFUL:     813779  USELESS:    1361913
L1I AVERAGE MISS LATENCY: 15.2765 cycles
L2C TOTAL     ACCESS:    4181567  HIT:    4046799  MISS:     134768
L2C LOAD      ACCESS:     179957  HIT:     144341  MISS:      35616
L2C RFO       ACCESS:     104179  HIT:      69145  MISS:      35034
L2C PREFETCH  ACCESS:    3758140  HIT:    3694105  MISS:      64035
L2C WRITEBACK ACCESS:     139291  HIT:     139208  MISS:         83
L2C PREFETCH  REQUESTED:    3693185  ISSUED:    3691652  USEFUL:       4985  USELESS:      59328
L2C AVERAGE MISS LATENCY: 63.7805 cycles
LLC TOTAL     ACCESS:     307143  HIT:     266046  MISS:      41097
LLC LOAD      ACCESS:      35614  HIT:      27496  MISS:       8118
LLC RFO       ACCESS:      35034  HIT:      27615  MISS:       7419
LLC PREFETCH  ACCESS:     190386  HIT:     165117  MISS:      25269
LLC WRITEBACK ACCESS:      46109  HIT:      45818  MISS:        291
LLC PREFETCH  REQUESTED:          0  ISSUED:          0  USEFUL:       1406  USELESS:      21643
LLC AVERAGE MISS LATENCY: 177.742 cycles
Major fault: 0 Minor fault: 4156
CPU 0 L1I EPI prefetcher final stats
CPU 0 L1D next line prefetcher final stats

DRAM Statistics
 CHANNEL 0
 RQ ROW_BUFFER_HIT:       5269  ROW_BUFFER_MISS:      35537
 DBUS_CONGESTED:      25681
 WQ ROW_BUFFER_HIT:       1561  ROW_BUFFER_MISS:      16274  FULL:          0

 AVG_CONGESTED_CYCLE: 5

CPU 0 Branch Prediction Accuracy: 94.7729% MPKI: 9.72684 Average ROB Occupancy at Mispredict: 53.8609

Branch types
NOT_BRANCH: 40695374 81.3907%
BRANCH_DIRECT_JUMP: 422107 0.844214%
BRANCH_INDIRECT: 65 0.00013%
BRANCH_CONDITIONAL: 8105006 16.21%
BRANCH_DIRECT_CALL: 374912 0.749824%
BRANCH_INDIRECT_CALL: 13657 0.027314%
BRANCH_RETURN: 388556 0.777112%
BRANCH_OTHER: 0 0%

