Initialize SIGNATURE TABLE
ST_SET: 1
ST_WAY: 256
ST_TAG_BIT: 16
ST_TAG_MASK: ffff

Initialize PATTERN TABLE
PT_SET: 512
PT_WAY: 4
SIG_DELTA_BIT: 7
C_SIG_BIT: 4
C_DELTA_BIT: 4

Initialize PREFETCH FILTER
FILTER_SET: 1024

*** ChampSim Multicore Out-of-Order Simulator ***

Warmup Instructions: 50000000
Simulation Instructions: 50000000
Number of CPUs: 1
LLC sets: 2048
LLC ways: 16
Off-chip DRAM Size: 4096 MB Channels: 1 Width: 64-bit Data Rate: 3200 MT/s

CPU 0 runs /home/sankara2004/240C/hw1/ChampSim_2/ChampSim/ipc1_public/spec_x264_001.champsimtrace.xz
CPU 0 EPI prefetcher
CPU 0 L1D next line prefetcher
Heartbeat CPU 0 instructions: 10000002 cycles: 3059905 heartbeat IPC: 3.26808 cumulative IPC: 3.26808 (Simulation time: 0 hr 0 min 24 sec) 
Heartbeat CPU 0 instructions: 20000002 cycles: 6110166 heartbeat IPC: 3.27841 cumulative IPC: 3.27323 (Simulation time: 0 hr 0 min 48 sec) 
Heartbeat CPU 0 instructions: 30000002 cycles: 9145857 heartbeat IPC: 3.29414 cumulative IPC: 3.28017 (Simulation time: 0 hr 1 min 12 sec) 
Heartbeat CPU 0 instructions: 40000000 cycles: 12189893 heartbeat IPC: 3.28511 cumulative IPC: 3.28141 (Simulation time: 0 hr 1 min 37 sec) 
Heartbeat CPU 0 instructions: 50000000 cycles: 15232204 heartbeat IPC: 3.28697 cumulative IPC: 3.28252 (Simulation time: 0 hr 2 min 1 sec) 

Warmup complete CPU 0 instructions: 50000004 cycles: 15232205 (Simulation time: 0 hr 2 min 1 sec) 

Heartbeat CPU 0 instructions: 60000002 cycles: 21158678 heartbeat IPC: 1.68734 cumulative IPC: 1.68734 (Simulation time: 0 hr 2 min 24 sec) 
Heartbeat CPU 0 instructions: 70000000 cycles: 27065057 heartbeat IPC: 1.69308 cumulative IPC: 1.69021 (Simulation time: 0 hr 2 min 47 sec) 
Heartbeat CPU 0 instructions: 80000003 cycles: 33116931 heartbeat IPC: 1.65238 cumulative IPC: 1.67741 (Simulation time: 0 hr 3 min 10 sec) 
Heartbeat CPU 0 instructions: 90000002 cycles: 39150119 heartbeat IPC: 1.6575 cumulative IPC: 1.67239 (Simulation time: 0 hr 3 min 34 sec) 
Heartbeat CPU 0 instructions: 100000002 cycles: 45043985 heartbeat IPC: 1.69668 cumulative IPC: 1.67719 (Simulation time: 0 hr 3 min 57 sec) 
Finished CPU 0 instructions: 50000002 cycles: 29811781 cumulative IPC: 1.67719 (Simulation time: 0 hr 3 min 57 sec) 

ChampSim completed all CPUs

Region of Interest Statistics

CPU 0 cumulative IPC: 1.67719 instructions: 50000002 cycles: 29811781
L1D TOTAL     ACCESS:   12956804  HIT:   12795761  MISS:     161043
L1D LOAD      ACCESS:    5092113  HIT:    5036933  MISS:      55180
L1D RFO       ACCESS:    2880552  HIT:    2846316  MISS:      34236
L1D PREFETCH  ACCESS:    4984139  HIT:    4912512  MISS:      71627
L1D WRITEBACK ACCESS:          0  HIT:          0  MISS:          0
L1D PREFETCH  REQUESTED:    5108436  ISSUED:    5040795  USEFUL:      25762  USELESS:      45674
L1D AVERAGE MISS LATENCY: 40.3427 cycles
L1I TOTAL     ACCESS:   20533305  HIT:   20190840  MISS:     342465
L1I LOAD      ACCESS:    8034146  HIT:    8031274  MISS:       2872
L1I RFO       ACCESS:          0  HIT:          0  MISS:          0
L1I PREFETCH  ACCESS:   12499159  HIT:   12159566  MISS:     339593
L1I WRITEBACK ACCESS:          0  HIT:          0  MISS:          0
L1I PREFETCH  REQUESTED:   15100521  ISSUED:   15100521  USEFUL:     273269  USELESS:      66342
L1I AVERAGE MISS LATENCY: 15.0457 cycles
L2C TOTAL     ACCESS:     743500  HIT:     703884  MISS:      39616
L2C LOAD      ACCESS:      56418  HIT:      51086  MISS:       5332
L2C RFO       ACCESS:      34000  HIT:      21909  MISS:      12091
L2C PREFETCH  ACCESS:     610029  HIT:     587913  MISS:      22116
L2C WRITEBACK ACCESS:      43053  HIT:      42976  MISS:         77
L2C PREFETCH  REQUESTED:     625301  ISSUED:     623726  USEFUL:       8993  USELESS:      13357
L2C AVERAGE MISS LATENCY: 104.619 cycles
LLC TOTAL     ACCESS:     115194  HIT:      85877  MISS:      29317
LLC LOAD      ACCESS:       5331  HIT:       3193  MISS:       2138
LLC RFO       ACCESS:      12091  HIT:        484  MISS:      11607
LLC PREFETCH  ACCESS:      84184  HIT:      68686  MISS:      15498
LLC WRITEBACK ACCESS:      13588  HIT:      13514  MISS:         74
LLC PREFETCH  REQUESTED:          0  ISSUED:          0  USEFUL:       1758  USELESS:      14077
LLC AVERAGE MISS LATENCY: 166.458 cycles
Major fault: 0 Minor fault: 1287
CPU 0 L1I EPI prefetcher final stats
CPU 0 L1D next line prefetcher final stats

DRAM Statistics
 CHANNEL 0
 RQ ROW_BUFFER_HIT:       8896  ROW_BUFFER_MISS:      20347
 DBUS_CONGESTED:      12657
 WQ ROW_BUFFER_HIT:       2966  ROW_BUFFER_MISS:       9830  FULL:          0

 AVG_CONGESTED_CYCLE: 6

CPU 0 Branch Prediction Accuracy: 97.1633% MPKI: 1.73704 Average ROB Occupancy at Mispredict: 43.1682

Branch types
NOT_BRANCH: 46937921 93.8758%
BRANCH_DIRECT_JUMP: 170816 0.341632%
BRANCH_INDIRECT: 0 0%
BRANCH_CONDITIONAL: 2532774 5.06555%
BRANCH_DIRECT_CALL: 114227 0.228454%
BRANCH_INDIRECT_CALL: 64863 0.129726%
BRANCH_RETURN: 179089 0.358178%
BRANCH_OTHER: 0 0%

