Initialize SIGNATURE TABLE
ST_SET: 1
ST_WAY: 256
ST_TAG_BIT: 16
ST_TAG_MASK: ffff

Initialize PATTERN TABLE
PT_SET: 512
PT_WAY: 4
SIG_DELTA_BIT: 7
C_SIG_BIT: 4
C_DELTA_BIT: 4

Initialize PREFETCH FILTER
FILTER_SET: 1024

*** ChampSim Multicore Out-of-Order Simulator ***

Warmup Instructions: 50000000
Simulation Instructions: 50000000
Number of CPUs: 1
LLC sets: 2048
LLC ways: 16
Off-chip DRAM Size: 4096 MB Channels: 1 Width: 64-bit Data Rate: 3200 MT/s

CPU 0 runs /home/sankara2004/240C/hw1/ChampSim_2/ChampSim/ipc1_public/spec_x264_001.champsimtrace.xz
CPU 0 EPI prefetcher
CPU 0 L1D next line prefetcher
Heartbeat CPU 0 instructions: 10000002 cycles: 3060112 heartbeat IPC: 3.26785 cumulative IPC: 3.26785 (Simulation time: 0 hr 6 min 30 sec) 
Heartbeat CPU 0 instructions: 20000002 cycles: 6110634 heartbeat IPC: 3.27813 cumulative IPC: 3.27298 (Simulation time: 0 hr 12 min 59 sec) 
Heartbeat CPU 0 instructions: 30000002 cycles: 9146513 heartbeat IPC: 3.29394 cumulative IPC: 3.27994 (Simulation time: 0 hr 19 min 32 sec) 
Heartbeat CPU 0 instructions: 40000000 cycles: 12191509 heartbeat IPC: 3.28408 cumulative IPC: 3.28097 (Simulation time: 0 hr 26 min 2 sec) 
Heartbeat CPU 0 instructions: 50000000 cycles: 15234867 heartbeat IPC: 3.28584 cumulative IPC: 3.28195 (Simulation time: 0 hr 32 min 31 sec) 

Warmup complete CPU 0 instructions: 50000004 cycles: 15234868 (Simulation time: 0 hr 32 min 31 sec) 

Heartbeat CPU 0 instructions: 60000001 cycles: 21222847 heartbeat IPC: 1.67001 cumulative IPC: 1.67001 (Simulation time: 0 hr 40 min 45 sec) 
Heartbeat CPU 0 instructions: 70000000 cycles: 27180001 heartbeat IPC: 1.67865 cumulative IPC: 1.67432 (Simulation time: 0 hr 49 min 6 sec) 
Heartbeat CPU 0 instructions: 80000003 cycles: 33301630 heartbeat IPC: 1.63355 cumulative IPC: 1.66051 (Simulation time: 0 hr 57 min 33 sec) 
Heartbeat CPU 0 instructions: 90000002 cycles: 39397107 heartbeat IPC: 1.64056 cumulative IPC: 1.65548 (Simulation time: 1 hr 5 min 47 sec) 
Heartbeat CPU 0 instructions: 100000002 cycles: 45344372 heartbeat IPC: 1.68145 cumulative IPC: 1.66061 (Simulation time: 1 hr 13 min 54 sec) 
Finished CPU 0 instructions: 50000002 cycles: 30109505 cumulative IPC: 1.66061 (Simulation time: 1 hr 13 min 54 sec) 

ChampSim completed all CPUs

Region of Interest Statistics

CPU 0 cumulative IPC: 1.66061 instructions: 50000002 cycles: 30109505
L1D TOTAL     ACCESS:   12970281  HIT:   12809166  MISS:     161115
L1D LOAD      ACCESS:    5100223  HIT:    5045087  MISS:      55136
L1D RFO       ACCESS:    2880664  HIT:    2846410  MISS:      34254
L1D PREFETCH  ACCESS:    4989394  HIT:    4917669  MISS:      71725
L1D WRITEBACK ACCESS:          0  HIT:          0  MISS:          0
L1D PREFETCH  REQUESTED:    5116705  ISSUED:    5049254  USEFUL:      25792  USELESS:      45741
L1D AVERAGE MISS LATENCY: 40.2552 cycles
L1I TOTAL     ACCESS:   19008898  HIT:   18703222  MISS:     305676
L1I LOAD      ACCESS:    8019502  HIT:    7983957  MISS:      35545
L1I RFO       ACCESS:          0  HIT:          0  MISS:          0
L1I PREFETCH  ACCESS:   10989396  HIT:   10719265  MISS:     270131
L1I WRITEBACK ACCESS:          0  HIT:          0  MISS:          0
L1I PREFETCH  REQUESTED:   13329903  ISSUED:   13329903  USEFUL:     228592  USELESS:      41532
L1I AVERAGE MISS LATENCY: 14.8885 cycles
L2C TOTAL     ACCESS:     728443  HIT:     689020  MISS:      39423
L2C LOAD      ACCESS:      86897  HIT:      81440  MISS:       5457
L2C RFO       ACCESS:      34008  HIT:      21921  MISS:      12087
L2C PREFETCH  ACCESS:     564484  HIT:     542686  MISS:      21798
L2C WRITEBACK ACCESS:      43054  HIT:      42973  MISS:         81
L2C PREFETCH  REQUESTED:     527783  ISSUED:     526904  USEFUL:       8942  USELESS:      13046
L2C AVERAGE MISS LATENCY: 104.879 cycles
LLC TOTAL     ACCESS:     119377  HIT:      90173  MISS:      29204
LLC LOAD      ACCESS:       5431  HIT:       3248  MISS:       2183
LLC RFO       ACCESS:      12087  HIT:        470  MISS:      11617
LLC PREFETCH  ACCESS:      88222  HIT:      72885  MISS:      15337
LLC WRITEBACK ACCESS:      13637  HIT:      13570  MISS:         67
LLC PREFETCH  REQUESTED:          0  ISSUED:          0  USEFUL:       1686  USELESS:      13966
LLC AVERAGE MISS LATENCY: 166.95 cycles
Major fault: 0 Minor fault: 1286
CPU 0 L1I EPI prefetcher final stats
CPU 0 L1D next line prefetcher final stats

DRAM Statistics
 CHANNEL 0
 RQ ROW_BUFFER_HIT:       8827  ROW_BUFFER_MISS:      20310
 DBUS_CONGESTED:      12377
 WQ ROW_BUFFER_HIT:       2866  ROW_BUFFER_MISS:       9937  FULL:          0

 AVG_CONGESTED_CYCLE: 6

CPU 0 Branch Prediction Accuracy: 97.1633% MPKI: 1.73704 Average ROB Occupancy at Mispredict: 42.9345

Branch types
NOT_BRANCH: 46937921 93.8758%
BRANCH_DIRECT_JUMP: 170816 0.341632%
BRANCH_INDIRECT: 0 0%
BRANCH_CONDITIONAL: 2532774 5.06555%
BRANCH_DIRECT_CALL: 114227 0.228454%
BRANCH_INDIRECT_CALL: 64863 0.129726%
BRANCH_RETURN: 179089 0.358178%
BRANCH_OTHER: 0 0%

