Initialize SIGNATURE TABLE
ST_SET: 1
ST_WAY: 256
ST_TAG_BIT: 16
ST_TAG_MASK: ffff

Initialize PATTERN TABLE
PT_SET: 512
PT_WAY: 4
SIG_DELTA_BIT: 7
C_SIG_BIT: 4
C_DELTA_BIT: 4

Initialize PREFETCH FILTER
FILTER_SET: 1024

*** ChampSim Multicore Out-of-Order Simulator ***

Warmup Instructions: 50000000
Simulation Instructions: 50000000
Number of CPUs: 1
LLC sets: 2048
LLC ways: 16
Off-chip DRAM Size: 4096 MB Channels: 1 Width: 64-bit Data Rate: 3200 MT/s

CPU 0 runs /home/sankara2004/240C/hw1/ChampSim_2/ChampSim/ipc1_public/spec_perlbench_001.champsimtrace.xz
LHT KB: 31.56
SCC KB: 1.56
Total KB: 33.12
CPU 0 L1D next line prefetcher
Heartbeat CPU 0 instructions: 10000000 cycles: 3275776 heartbeat IPC: 3.05271 cumulative IPC: 3.05271 (Simulation time: 0 hr 5 min 49 sec) 
Heartbeat CPU 0 instructions: 20000000 cycles: 6540407 heartbeat IPC: 3.06313 cumulative IPC: 3.05791 (Simulation time: 0 hr 11 min 34 sec) 
Heartbeat CPU 0 instructions: 30000002 cycles: 9857004 heartbeat IPC: 3.01514 cumulative IPC: 3.04352 (Simulation time: 0 hr 17 min 19 sec) 
Heartbeat CPU 0 instructions: 40000002 cycles: 13112332 heartbeat IPC: 3.07189 cumulative IPC: 3.05056 (Simulation time: 0 hr 23 min 2 sec) 
Heartbeat CPU 0 instructions: 50000001 cycles: 16386127 heartbeat IPC: 3.05456 cumulative IPC: 3.05136 (Simulation time: 0 hr 28 min 40 sec) 

Warmup complete CPU 0 instructions: 50000001 cycles: 16386127 (Simulation time: 0 hr 28 min 40 sec) 

Heartbeat CPU 0 instructions: 60000001 cycles: 24657498 heartbeat IPC: 1.20899 cumulative IPC: 1.20899 (Simulation time: 0 hr 36 min 9 sec) 
Heartbeat CPU 0 instructions: 70000003 cycles: 32832376 heartbeat IPC: 1.22326 cumulative IPC: 1.21608 (Simulation time: 0 hr 43 min 54 sec) 
Heartbeat CPU 0 instructions: 80000000 cycles: 41290392 heartbeat IPC: 1.18231 cumulative IPC: 1.20461 (Simulation time: 0 hr 51 min 40 sec) 
Heartbeat CPU 0 instructions: 90000000 cycles: 47006501 heartbeat IPC: 1.74944 cumulative IPC: 1.30632 (Simulation time: 0 hr 59 min 14 sec) 
Heartbeat CPU 0 instructions: 100000002 cycles: 52872528 heartbeat IPC: 1.70473 cumulative IPC: 1.37037 (Simulation time: 1 hr 6 min 41 sec) 
Finished CPU 0 instructions: 50000001 cycles: 36486401 cumulative IPC: 1.37037 (Simulation time: 1 hr 6 min 41 sec) 

ChampSim completed all CPUs

Region of Interest Statistics

CPU 0 cumulative IPC: 1.37037 instructions: 50000001 cycles: 36486401
L1D TOTAL     ACCESS:   20697921  HIT:   20282837  MISS:     415084
L1D LOAD      ACCESS:    7178442  HIT:    6964784  MISS:     213658
L1D RFO       ACCESS:    6542179  HIT:    6523667  MISS:      18512
L1D PREFETCH  ACCESS:    6977300  HIT:    6794386  MISS:     182914
L1D WRITEBACK ACCESS:          0  HIT:          0  MISS:          0
L1D PREFETCH  REQUESTED:    7194324  ISSUED:    7078155  USEFUL:      55241  USELESS:     127668
L1D AVERAGE MISS LATENCY: 58.9046 cycles
L1I TOTAL     ACCESS:   17603000  HIT:   16779346  MISS:     823654
L1I LOAD      ACCESS:    9140674  HIT:    9033671  MISS:     107003
L1I RFO       ACCESS:          0  HIT:          0  MISS:          0
L1I PREFETCH  ACCESS:    8462326  HIT:    7745675  MISS:     716651
L1I WRITEBACK ACCESS:          0  HIT:          0  MISS:          0
L1I PREFETCH  REQUESTED:    9693366  ISSUED:    9693366  USEFUL:     371296  USELESS:     345344
L1I AVERAGE MISS LATENCY: 15.4488 cycles
L2C TOTAL     ACCESS:    1701292  HIT:    1524500  MISS:     176792
L2C LOAD      ACCESS:     220389  HIT:     141879  MISS:      78510
L2C RFO       ACCESS:      18269  HIT:      12641  MISS:       5628
L2C PREFETCH  ACCESS:    1383677  HIT:    1291497  MISS:      92180
L2C WRITEBACK ACCESS:      78957  HIT:      78483  MISS:        474
L2C PREFETCH  REQUESTED:     873082  ISSUED:     873074  USEFUL:       5652  USELESS:      86357
L2C AVERAGE MISS LATENCY: 119.076 cycles
LLC TOTAL     ACCESS:     375676  HIT:     233267  MISS:     142409
LLC LOAD      ACCESS:      78508  HIT:      30066  MISS:      48442
LLC RFO       ACCESS:       5628  HIT:       2555  MISS:       3073
LLC PREFETCH  ACCESS:     265312  HIT:     174841  MISS:      90471
LLC WRITEBACK ACCESS:      26228  HIT:      25805  MISS:        423
LLC PREFETCH  REQUESTED:          0  ISSUED:          0  USEFUL:      13059  USELESS:      77719
LLC AVERAGE MISS LATENCY: 159.883 cycles
Major fault: 0 Minor fault: 6373
CPU 0 L1D next line prefetcher final stats

DRAM Statistics
 CHANNEL 0
 RQ ROW_BUFFER_HIT:      32836  ROW_BUFFER_MISS:     109149
 DBUS_CONGESTED:      59121
 WQ ROW_BUFFER_HIT:       4343  ROW_BUFFER_MISS:      12930  FULL:          0

 AVG_CONGESTED_CYCLE: 4

CPU 0 Branch Prediction Accuracy: 98.7418% MPKI: 2.47758 Average ROB Occupancy at Mispredict: 78.7984

Branch types
NOT_BRANCH: 40154100 80.3082%
BRANCH_DIRECT_JUMP: 817094 1.63419%
BRANCH_INDIRECT: 303787 0.607574%
BRANCH_CONDITIONAL: 7492103 14.9842%
BRANCH_DIRECT_CALL: 471777 0.943554%
BRANCH_INDIRECT_CALL: 144546 0.289092%
BRANCH_RETURN: 616324 1.23265%
BRANCH_OTHER: 0 0%

