Initialize SIGNATURE TABLE
ST_SET: 1
ST_WAY: 256
ST_TAG_BIT: 16
ST_TAG_MASK: ffff

Initialize PATTERN TABLE
PT_SET: 512
PT_WAY: 4
SIG_DELTA_BIT: 7
C_SIG_BIT: 4
C_DELTA_BIT: 4

Initialize PREFETCH FILTER
FILTER_SET: 1024

*** ChampSim Multicore Out-of-Order Simulator ***

Warmup Instructions: 50000000
Simulation Instructions: 50000000
Number of CPUs: 1
LLC sets: 2048
LLC ways: 16
Off-chip DRAM Size: 4096 MB Channels: 1 Width: 64-bit Data Rate: 3200 MT/s

CPU 0 runs /home/sankara2004/240C/hw1/ChampSim_2/ChampSim/ipc1_public/spec_gobmk_001.champsimtrace.xz
LHT KB: 31.56
SCC KB: 1.56
Total KB: 33.12
CPU 0 L1D next line prefetcher
Heartbeat CPU 0 instructions: 10000003 cycles: 3511198 heartbeat IPC: 2.84803 cumulative IPC: 2.84803 (Simulation time: 0 hr 5 min 48 sec) 
Heartbeat CPU 0 instructions: 20000002 cycles: 6991911 heartbeat IPC: 2.87297 cumulative IPC: 2.86045 (Simulation time: 0 hr 11 min 32 sec) 
Heartbeat CPU 0 instructions: 30000002 cycles: 10511557 heartbeat IPC: 2.84119 cumulative IPC: 2.854 (Simulation time: 0 hr 17 min 19 sec) 
Heartbeat CPU 0 instructions: 40000001 cycles: 14031086 heartbeat IPC: 2.84129 cumulative IPC: 2.85081 (Simulation time: 0 hr 23 min 3 sec) 
Heartbeat CPU 0 instructions: 50000001 cycles: 17571404 heartbeat IPC: 2.8246 cumulative IPC: 2.84553 (Simulation time: 0 hr 28 min 42 sec) 

Warmup complete CPU 0 instructions: 50000001 cycles: 17571404 (Simulation time: 0 hr 28 min 42 sec) 

Heartbeat CPU 0 instructions: 60000000 cycles: 26331542 heartbeat IPC: 1.14153 cumulative IPC: 1.14153 (Simulation time: 0 hr 36 min 10 sec) 
Heartbeat CPU 0 instructions: 70000002 cycles: 34735714 heartbeat IPC: 1.18989 cumulative IPC: 1.16521 (Simulation time: 0 hr 43 min 53 sec) 
Heartbeat CPU 0 instructions: 80000003 cycles: 43555885 heartbeat IPC: 1.13376 cumulative IPC: 1.15454 (Simulation time: 0 hr 51 min 40 sec) 
Heartbeat CPU 0 instructions: 90000001 cycles: 52058017 heartbeat IPC: 1.17618 cumulative IPC: 1.15987 (Simulation time: 0 hr 59 min 16 sec) 
Heartbeat CPU 0 instructions: 100000003 cycles: 60872658 heartbeat IPC: 1.13448 cumulative IPC: 1.1547 (Simulation time: 1 hr 6 min 44 sec) 
Finished CPU 0 instructions: 50000002 cycles: 43301254 cumulative IPC: 1.1547 (Simulation time: 1 hr 6 min 44 sec) 

ChampSim completed all CPUs

Region of Interest Statistics

CPU 0 cumulative IPC: 1.1547 instructions: 50000002 cycles: 43301254
L1D TOTAL     ACCESS:   17991726  HIT:   17612171  MISS:     379555
L1D LOAD      ACCESS:    7214612  HIT:    7079141  MISS:     135471
L1D RFO       ACCESS:    3702015  HIT:    3597444  MISS:     104571
L1D PREFETCH  ACCESS:    7075099  HIT:    6935586  MISS:     139513
L1D WRITEBACK ACCESS:          0  HIT:          0  MISS:          0
L1D PREFETCH  REQUESTED:    7220137  ISSUED:    7137279  USEFUL:      44783  USELESS:      94735
L1D AVERAGE MISS LATENCY: 33.0341 cycles
L1I TOTAL     ACCESS:   20858405  HIT:   19361809  MISS:    1496596
L1I LOAD      ACCESS:    8958936  HIT:    8864837  MISS:      94099
L1I RFO       ACCESS:          0  HIT:          0  MISS:          0
L1I PREFETCH  ACCESS:   11899469  HIT:   10496972  MISS:    1402497
L1I WRITEBACK ACCESS:          0  HIT:          0  MISS:          0
L1I PREFETCH  REQUESTED:   13242480  ISSUED:   13242480  USEFUL:     700134  USELESS:     702319
L1I AVERAGE MISS LATENCY: 14.0487 cycles
L2C TOTAL     ACCESS:    2636210  HIT:    2508911  MISS:     127299
L2C LOAD      ACCESS:     128252  HIT:      93913  MISS:      34339
L2C RFO       ACCESS:     104217  HIT:      68978  MISS:      35239
L2C PREFETCH  ACCESS:    2264445  HIT:    2206797  MISS:      57648
L2C WRITEBACK ACCESS:     139296  HIT:     139223  MISS:         73
L2C PREFETCH  REQUESTED:    1079230  ISSUED:    1079198  USEFUL:       4203  USELESS:      53664
L2C AVERAGE MISS LATENCY: 62.5137 cycles
LLC TOTAL     ACCESS:     266213  HIT:     233552  MISS:      32661
LLC LOAD      ACCESS:      34337  HIT:      26263  MISS:       8074
LLC RFO       ACCESS:      35235  HIT:      29941  MISS:       5294
LLC PREFETCH  ACCESS:     150525  HIT:     131457  MISS:      19068
LLC WRITEBACK ACCESS:      46116  HIT:      45891  MISS:        225
LLC PREFETCH  REQUESTED:          0  ISSUED:          0  USEFUL:       1189  USELESS:      16792
LLC AVERAGE MISS LATENCY: 177.432 cycles
Major fault: 0 Minor fault: 4165
CPU 0 L1D next line prefetcher final stats

DRAM Statistics
 CHANNEL 0
 RQ ROW_BUFFER_HIT:       3737  ROW_BUFFER_MISS:      28699
 DBUS_CONGESTED:      17520
 WQ ROW_BUFFER_HIT:       1061  ROW_BUFFER_MISS:      13520  FULL:          0

 AVG_CONGESTED_CYCLE: 4

CPU 0 Branch Prediction Accuracy: 94.7729% MPKI: 9.72684 Average ROB Occupancy at Mispredict: 54.1057

Branch types
NOT_BRANCH: 40695402 81.3908%
BRANCH_DIRECT_JUMP: 422107 0.844214%
BRANCH_INDIRECT: 65 0.00013%
BRANCH_CONDITIONAL: 8105005 16.21%
BRANCH_DIRECT_CALL: 374913 0.749826%
BRANCH_INDIRECT_CALL: 13657 0.027314%
BRANCH_RETURN: 388556 0.777112%
BRANCH_OTHER: 0 0%

