Initialize SIGNATURE TABLE
ST_SET: 1
ST_WAY: 256
ST_TAG_BIT: 16
ST_TAG_MASK: ffff

Initialize PATTERN TABLE
PT_SET: 512
PT_WAY: 4
SIG_DELTA_BIT: 7
C_SIG_BIT: 4
C_DELTA_BIT: 4

Initialize PREFETCH FILTER
FILTER_SET: 1024

*** ChampSim Multicore Out-of-Order Simulator ***

Warmup Instructions: 50000000
Simulation Instructions: 50000000
Number of CPUs: 1
LLC sets: 2048
LLC ways: 16
Off-chip DRAM Size: 4096 MB Channels: 1 Width: 64-bit Data Rate: 3200 MT/s

CPU 0 runs /home/sankara2004/240C/hw1/ChampSim_2/ChampSim/ipc1_public/spec_x264_001.champsimtrace.xz
LHT KB: 126.25
SCC KB: 1.56
Total KB: 127.81
CPU 0 L1D next line prefetcher
Heartbeat CPU 0 instructions: 10000002 cycles: 3060235 heartbeat IPC: 3.26772 cumulative IPC: 3.26772 (Simulation time: 0 hr 5 min 50 sec) 
Heartbeat CPU 0 instructions: 20000002 cycles: 6110817 heartbeat IPC: 3.27806 cumulative IPC: 3.27289 (Simulation time: 0 hr 11 min 37 sec) 
Heartbeat CPU 0 instructions: 30000002 cycles: 9146790 heartbeat IPC: 3.29384 cumulative IPC: 3.27984 (Simulation time: 0 hr 17 min 26 sec) 
Heartbeat CPU 0 instructions: 40000000 cycles: 12191790 heartbeat IPC: 3.28407 cumulative IPC: 3.2809 (Simulation time: 0 hr 23 min 11 sec) 
Heartbeat CPU 0 instructions: 50000000 cycles: 15235148 heartbeat IPC: 3.28584 cumulative IPC: 3.28188 (Simulation time: 0 hr 28 min 52 sec) 

Warmup complete CPU 0 instructions: 50000004 cycles: 15235149 (Simulation time: 0 hr 28 min 52 sec) 

Heartbeat CPU 0 instructions: 60000002 cycles: 21174362 heartbeat IPC: 1.68372 cumulative IPC: 1.68372 (Simulation time: 0 hr 36 min 25 sec) 
Heartbeat CPU 0 instructions: 70000000 cycles: 27092575 heartbeat IPC: 1.6897 cumulative IPC: 1.68671 (Simulation time: 0 hr 44 min 8 sec) 
Heartbeat CPU 0 instructions: 80000003 cycles: 33159329 heartbeat IPC: 1.64833 cumulative IPC: 1.67372 (Simulation time: 0 hr 52 min 0 sec) 
Heartbeat CPU 0 instructions: 90000002 cycles: 39205895 heartbeat IPC: 1.65383 cumulative IPC: 1.6687 (Simulation time: 0 hr 59 min 39 sec) 
Heartbeat CPU 0 instructions: 100000002 cycles: 45111835 heartbeat IPC: 1.69321 cumulative IPC: 1.67355 (Simulation time: 1 hr 7 min 11 sec) 
Finished CPU 0 instructions: 50000002 cycles: 29876687 cumulative IPC: 1.67355 (Simulation time: 1 hr 7 min 11 sec) 

ChampSim completed all CPUs

Region of Interest Statistics

CPU 0 cumulative IPC: 1.67355 instructions: 50000002 cycles: 29876687
L1D TOTAL     ACCESS:   12969108  HIT:   12808074  MISS:     161034
L1D LOAD      ACCESS:    5098495  HIT:    5043362  MISS:      55133
L1D RFO       ACCESS:    2880334  HIT:    2846077  MISS:      34257
L1D PREFETCH  ACCESS:    4990279  HIT:    4918635  MISS:      71644
L1D WRITEBACK ACCESS:          0  HIT:          0  MISS:          0
L1D PREFETCH  REQUESTED:    5115316  ISSUED:    5047897  USEFUL:      25788  USELESS:      45665
L1D AVERAGE MISS LATENCY: 41.6323 cycles
L1I TOTAL     ACCESS:   11230439  HIT:   10877321  MISS:     353118
L1I LOAD      ACCESS:    8037297  HIT:    8023156  MISS:      14141
L1I RFO       ACCESS:          0  HIT:          0  MISS:          0
L1I PREFETCH  ACCESS:    3193142  HIT:    2854165  MISS:     338977
L1I WRITEBACK ACCESS:          0  HIT:          0  MISS:          0
L1I PREFETCH  REQUESTED:    3314962  ISSUED:    3314962  USEFUL:     265482  USELESS:      73478
L1I AVERAGE MISS LATENCY: 14.1954 cycles
L2C TOTAL     ACCESS:     758384  HIT:     719771  MISS:      38613
L2C LOAD      ACCESS:      56806  HIT:      51528  MISS:       5278
L2C RFO       ACCESS:      34028  HIT:      21973  MISS:      12055
L2C PREFETCH  ACCESS:     624487  HIT:     603320  MISS:      21167
L2C WRITEBACK ACCESS:      43063  HIT:      42950  MISS:        113
L2C PREFETCH  REQUESTED:     478719  ISSUED:     477901  USEFUL:       8953  USELESS:      12521
L2C AVERAGE MISS LATENCY: 111.818 cycles
LLC TOTAL     ACCESS:     102116  HIT:      73015  MISS:      29101
LLC LOAD      ACCESS:       5278  HIT:       3042  MISS:       2236
LLC RFO       ACCESS:      12054  HIT:        423  MISS:      11631
LLC PREFETCH  ACCESS:      71158  HIT:      55995  MISS:      15163
LLC WRITEBACK ACCESS:      13626  HIT:      13555  MISS:         71
LLC PREFETCH  REQUESTED:          0  ISSUED:          0  USEFUL:       1579  USELESS:      14015
LLC AVERAGE MISS LATENCY: 166.339 cycles
Major fault: 0 Minor fault: 1288
CPU 0 L1D next line prefetcher final stats

DRAM Statistics
 CHANNEL 0
 RQ ROW_BUFFER_HIT:       8739  ROW_BUFFER_MISS:      20290
 DBUS_CONGESTED:      12748
 WQ ROW_BUFFER_HIT:       2896  ROW_BUFFER_MISS:      10001  FULL:          0

 AVG_CONGESTED_CYCLE: 6

CPU 0 Branch Prediction Accuracy: 97.1633% MPKI: 1.73704 Average ROB Occupancy at Mispredict: 42.4924

Branch types
NOT_BRANCH: 46937921 93.8758%
BRANCH_DIRECT_JUMP: 170816 0.341632%
BRANCH_INDIRECT: 0 0%
BRANCH_CONDITIONAL: 2532774 5.06555%
BRANCH_DIRECT_CALL: 114227 0.228454%
BRANCH_INDIRECT_CALL: 64863 0.129726%
BRANCH_RETURN: 179089 0.358178%
BRANCH_OTHER: 0 0%

