Initialize SIGNATURE TABLE
ST_SET: 1
ST_WAY: 256
ST_TAG_BIT: 16
ST_TAG_MASK: ffff

Initialize PATTERN TABLE
PT_SET: 512
PT_WAY: 4
SIG_DELTA_BIT: 7
C_SIG_BIT: 4
C_DELTA_BIT: 4

Initialize PREFETCH FILTER
FILTER_SET: 1024

*** ChampSim Multicore Out-of-Order Simulator ***

Warmup Instructions: 50000000
Simulation Instructions: 50000000
Number of CPUs: 1
LLC sets: 2048
LLC ways: 16
Off-chip DRAM Size: 4096 MB Channels: 1 Width: 64-bit Data Rate: 3200 MT/s

CPU 0 runs /home/sankara2004/240C/hw1/ChampSim_2/ChampSim/ipc1_public/spec_x264_001.champsimtrace.xz
LHT KB: 126.25
SCC KB: 1.56
Total KB: 127.81
CPU 0 L1D next line prefetcher
Heartbeat CPU 0 instructions: 10000002 cycles: 3060328 heartbeat IPC: 3.26762 cumulative IPC: 3.26762 (Simulation time: 0 hr 5 min 55 sec) 
Heartbeat CPU 0 instructions: 20000002 cycles: 6110876 heartbeat IPC: 3.2781 cumulative IPC: 3.27285 (Simulation time: 0 hr 11 min 43 sec) 
Heartbeat CPU 0 instructions: 30000002 cycles: 9146807 heartbeat IPC: 3.29388 cumulative IPC: 3.27983 (Simulation time: 0 hr 17 min 34 sec) 
Heartbeat CPU 0 instructions: 40000000 cycles: 12191628 heartbeat IPC: 3.28426 cumulative IPC: 3.28094 (Simulation time: 0 hr 23 min 22 sec) 
Heartbeat CPU 0 instructions: 50000000 cycles: 15234896 heartbeat IPC: 3.28594 cumulative IPC: 3.28194 (Simulation time: 0 hr 29 min 6 sec) 

Warmup complete CPU 0 instructions: 50000004 cycles: 15234897 (Simulation time: 0 hr 29 min 6 sec) 

Heartbeat CPU 0 instructions: 60000001 cycles: 21174346 heartbeat IPC: 1.68366 cumulative IPC: 1.68366 (Simulation time: 0 hr 36 min 44 sec) 
Heartbeat CPU 0 instructions: 70000000 cycles: 27094010 heartbeat IPC: 1.68928 cumulative IPC: 1.68647 (Simulation time: 0 hr 44 min 32 sec) 
Heartbeat CPU 0 instructions: 80000003 cycles: 33160172 heartbeat IPC: 1.64849 cumulative IPC: 1.67361 (Simulation time: 0 hr 52 min 22 sec) 
Heartbeat CPU 0 instructions: 90000001 cycles: 39206979 heartbeat IPC: 1.65377 cumulative IPC: 1.66861 (Simulation time: 1 hr 0 min 0 sec) 
Heartbeat CPU 0 instructions: 100000002 cycles: 45113678 heartbeat IPC: 1.69299 cumulative IPC: 1.67343 (Simulation time: 1 hr 7 min 29 sec) 
Finished CPU 0 instructions: 50000002 cycles: 29878782 cumulative IPC: 1.67343 (Simulation time: 1 hr 7 min 29 sec) 

ChampSim completed all CPUs

Region of Interest Statistics

CPU 0 cumulative IPC: 1.67343 instructions: 50000002 cycles: 29878782
L1D TOTAL     ACCESS:   12968964  HIT:   12807896  MISS:     161068
L1D LOAD      ACCESS:    5098371  HIT:    5043245  MISS:      55126
L1D RFO       ACCESS:    2880288  HIT:    2846016  MISS:      34272
L1D PREFETCH  ACCESS:    4990305  HIT:    4918635  MISS:      71670
L1D WRITEBACK ACCESS:          0  HIT:          0  MISS:          0
L1D PREFETCH  REQUESTED:    5115117  ISSUED:    5047637  USEFUL:      25793  USELESS:      45686
L1D AVERAGE MISS LATENCY: 41.6173 cycles
L1I TOTAL     ACCESS:   11355431  HIT:   11000559  MISS:     354872
L1I LOAD      ACCESS:    8037943  HIT:    8024615  MISS:      13328
L1I RFO       ACCESS:          0  HIT:          0  MISS:          0
L1I PREFETCH  ACCESS:    3317488  HIT:    2975944  MISS:     341544
L1I WRITEBACK ACCESS:          0  HIT:          0  MISS:          0
L1I PREFETCH  REQUESTED:    3456067  ISSUED:    3456067  USEFUL:     262949  USELESS:      78603
L1I AVERAGE MISS LATENCY: 14.2723 cycles
L2C TOTAL     ACCESS:     761348  HIT:     722672  MISS:      38676
L2C LOAD      ACCESS:      56757  HIT:      51450  MISS:       5307
L2C RFO       ACCESS:      34048  HIT:      21986  MISS:      12062
L2C PREFETCH  ACCESS:     627479  HIT:     606291  MISS:      21188
L2C WRITEBACK ACCESS:      43064  HIT:      42945  MISS:        119
L2C PREFETCH  REQUESTED:     481906  ISSUED:     480943  USEFUL:       8975  USELESS:      12497
L2C AVERAGE MISS LATENCY: 111.595 cycles
LLC TOTAL     ACCESS:     101421  HIT:      72352  MISS:      29069
LLC LOAD      ACCESS:       5307  HIT:       3067  MISS:       2240
LLC RFO       ACCESS:      12062  HIT:        440  MISS:      11622
LLC PREFETCH  ACCESS:      70406  HIT:      55270  MISS:      15136
LLC WRITEBACK ACCESS:      13646  HIT:      13575  MISS:         71
LLC PREFETCH  REQUESTED:          0  ISSUED:          0  USEFUL:       1592  USELESS:      13997
LLC AVERAGE MISS LATENCY: 165.889 cycles
Major fault: 0 Minor fault: 1288
CPU 0 L1D next line prefetcher final stats

DRAM Statistics
 CHANNEL 0
 RQ ROW_BUFFER_HIT:       8851  ROW_BUFFER_MISS:      20146
 DBUS_CONGESTED:      12664
 WQ ROW_BUFFER_HIT:       2879  ROW_BUFFER_MISS:       9992  FULL:          0

 AVG_CONGESTED_CYCLE: 6

CPU 0 Branch Prediction Accuracy: 97.1633% MPKI: 1.73704 Average ROB Occupancy at Mispredict: 42.5303

Branch types
NOT_BRANCH: 46937921 93.8758%
BRANCH_DIRECT_JUMP: 170816 0.341632%
BRANCH_INDIRECT: 0 0%
BRANCH_CONDITIONAL: 2532774 5.06555%
BRANCH_DIRECT_CALL: 114227 0.228454%
BRANCH_INDIRECT_CALL: 64863 0.129726%
BRANCH_RETURN: 179089 0.358178%
BRANCH_OTHER: 0 0%

