Initialize SIGNATURE TABLE
ST_SET: 1
ST_WAY: 256
ST_TAG_BIT: 16
ST_TAG_MASK: ffff

Initialize PATTERN TABLE
PT_SET: 512
PT_WAY: 4
SIG_DELTA_BIT: 7
C_SIG_BIT: 4
C_DELTA_BIT: 4

Initialize PREFETCH FILTER
FILTER_SET: 1024

*** ChampSim Multicore Out-of-Order Simulator ***

Warmup Instructions: 50000000
Simulation Instructions: 50000000
Number of CPUs: 1
LLC sets: 2048
LLC ways: 16
Off-chip DRAM Size: 4096 MB Channels: 1 Width: 64-bit Data Rate: 3200 MT/s

CPU 0 runs /home/sankara2004/240C/hw1/ChampSim_2/ChampSim/ipc1_public/spec_gcc_003.champsimtrace.xz
LHT KB: 126.25
SCC KB: 1.56
Total KB: 127.81
CPU 0 L1D next line prefetcher
Heartbeat CPU 0 instructions: 10000001 cycles: 3491638 heartbeat IPC: 2.86399 cumulative IPC: 2.86399 (Simulation time: 0 hr 5 min 57 sec) 
Heartbeat CPU 0 instructions: 20000000 cycles: 6960007 heartbeat IPC: 2.8832 cumulative IPC: 2.87356 (Simulation time: 0 hr 11 min 46 sec) 
Heartbeat CPU 0 instructions: 30000002 cycles: 10401493 heartbeat IPC: 2.90572 cumulative IPC: 2.8842 (Simulation time: 0 hr 17 min 37 sec) 
Heartbeat CPU 0 instructions: 40000000 cycles: 13870658 heartbeat IPC: 2.88254 cumulative IPC: 2.88379 (Simulation time: 0 hr 23 min 25 sec) 
Heartbeat CPU 0 instructions: 50000001 cycles: 17180896 heartbeat IPC: 3.02093 cumulative IPC: 2.91021 (Simulation time: 0 hr 29 min 9 sec) 

Warmup complete CPU 0 instructions: 50000001 cycles: 17180896 (Simulation time: 0 hr 29 min 9 sec) 

Heartbeat CPU 0 instructions: 60000000 cycles: 56611373 heartbeat IPC: 0.253611 cumulative IPC: 0.253611 (Simulation time: 0 hr 36 min 27 sec) 
Heartbeat CPU 0 instructions: 70000000 cycles: 98634701 heartbeat IPC: 0.237963 cumulative IPC: 0.245538 (Simulation time: 0 hr 43 min 54 sec) 
Heartbeat CPU 0 instructions: 80000003 cycles: 141731084 heartbeat IPC: 0.232038 cumulative IPC: 0.240867 (Simulation time: 0 hr 51 min 20 sec) 
Heartbeat CPU 0 instructions: 90000002 cycles: 177993323 heartbeat IPC: 0.275769 cumulative IPC: 0.248737 (Simulation time: 0 hr 58 min 40 sec) 
Heartbeat CPU 0 instructions: 100000000 cycles: 223880326 heartbeat IPC: 0.217927 cumulative IPC: 0.241897 (Simulation time: 1 hr 5 min 56 sec) 
Finished CPU 0 instructions: 50000000 cycles: 206699431 cumulative IPC: 0.241897 (Simulation time: 1 hr 5 min 56 sec) 

ChampSim completed all CPUs

Region of Interest Statistics

CPU 0 cumulative IPC: 0.241897 instructions: 50000000 cycles: 206699431
L1D TOTAL     ACCESS:   16883814  HIT:   11159419  MISS:    5724395
L1D LOAD      ACCESS:    4582709  HIT:    4199807  MISS:     382902
L1D RFO       ACCESS:    8207640  HIT:    3155871  MISS:    5051769
L1D PREFETCH  ACCESS:    4093465  HIT:    3803741  MISS:     289724
L1D WRITEBACK ACCESS:          0  HIT:          0  MISS:          0
L1D PREFETCH  REQUESTED:    4601038  ISSUED:    4541746  USEFUL:     152347  USELESS:     137557
L1D AVERAGE MISS LATENCY: 496.653 cycles
L1I TOTAL     ACCESS:   24936569  HIT:   22968243  MISS:    1968326
L1I LOAD      ACCESS:   11259542  HIT:   11069831  MISS:     189711
L1I RFO       ACCESS:          0  HIT:          0  MISS:          0
L1I PREFETCH  ACCESS:   13677027  HIT:   11898412  MISS:    1778615
L1I WRITEBACK ACCESS:          0  HIT:          0  MISS:          0
L1I PREFETCH  REQUESTED:   15320245  ISSUED:   15320181  USEFUL:     754865  USELESS:    1023631
L1I AVERAGE MISS LATENCY: 32.7649 cycles
L2C TOTAL     ACCESS:   13406543  HIT:    7295318  MISS:    6111225
L2C LOAD      ACCESS:     250848  HIT:      75965  MISS:     174883
L2C RFO       ACCESS:    5049960  HIT:       6471  MISS:    5043489
L2C PREFETCH  ACCESS:    2947883  HIT:    2055581  MISS:     892302
L2C WRITEBACK ACCESS:    5157852  HIT:    5157301  MISS:        551
L2C PREFETCH  REQUESTED:    2229231  ISSUED:    2228795  USEFUL:      30841  USELESS:     858488
L2C AVERAGE MISS LATENCY: 460.881 cycles
LLC TOTAL     ACCESS:   12064088  HIT:    7481126  MISS:    4582962
LLC LOAD      ACCESS:     174858  HIT:     133307  MISS:      41551
LLC RFO       ACCESS:    5043489  HIT:     721412  MISS:    4322077
LLC PREFETCH  ACCESS:    1711949  HIT:    1492615  MISS:     219334
LLC WRITEBACK ACCESS:    5133792  HIT:    5133792  MISS:          0
LLC PREFETCH  REQUESTED:          0  ISSUED:          0  USEFUL:      11721  USELESS:     207327
LLC AVERAGE MISS LATENCY: 581.169 cycles
Major fault: 0 Minor fault: 2822
CPU 0 L1D next line prefetcher final stats

DRAM Statistics
 CHANNEL 0
 RQ ROW_BUFFER_HIT:    1360695  ROW_BUFFER_MISS:    3222154
 DBUS_CONGESTED:    8008402
 WQ ROW_BUFFER_HIT:    1162779  ROW_BUFFER_MISS:    3186873  FULL:          0

 AVG_CONGESTED_CYCLE: 6

CPU 0 Branch Prediction Accuracy: 99.665% MPKI: 0.78342 Average ROB Occupancy at Mispredict: 116.144

Branch types
NOT_BRANCH: 38305862 76.6117%
BRANCH_DIRECT_JUMP: 384282 0.768564%
BRANCH_INDIRECT: 71949 0.143898%
BRANCH_CONDITIONAL: 9879826 19.7597%
BRANCH_DIRECT_CALL: 650586 1.30117%
BRANCH_INDIRECT_CALL: 28456 0.056912%
BRANCH_RETURN: 679046 1.35809%
BRANCH_OTHER: 0 0%

