Initialize SIGNATURE TABLE
ST_SET: 1
ST_WAY: 256
ST_TAG_BIT: 16
ST_TAG_MASK: ffff

Initialize PATTERN TABLE
PT_SET: 512
PT_WAY: 4
SIG_DELTA_BIT: 7
C_SIG_BIT: 4
C_DELTA_BIT: 4

Initialize PREFETCH FILTER
FILTER_SET: 1024

*** ChampSim Multicore Out-of-Order Simulator ***

Warmup Instructions: 50000000
Simulation Instructions: 50000000
Number of CPUs: 1
LLC sets: 2048
LLC ways: 16
Off-chip DRAM Size: 4096 MB Channels: 1 Width: 64-bit Data Rate: 3200 MT/s

CPU 0 runs /home/sankara2004/240C/hw1/ChampSim_2/ChampSim/ipc1_public/spec_gcc_001.champsimtrace.xz
CPU 0 EPI prefetcher
CPU 0 L1D next line prefetcher
Heartbeat CPU 0 instructions: 10000003 cycles: 3219440 heartbeat IPC: 3.10613 cumulative IPC: 3.10613 (Simulation time: 0 hr 6 min 31 sec) 
Heartbeat CPU 0 instructions: 20000002 cycles: 6464528 heartbeat IPC: 3.08158 cumulative IPC: 3.09381 (Simulation time: 0 hr 13 min 1 sec) 
Heartbeat CPU 0 instructions: 30000000 cycles: 9666035 heartbeat IPC: 3.12353 cumulative IPC: 3.10365 (Simulation time: 0 hr 19 min 34 sec) 
Heartbeat CPU 0 instructions: 40000001 cycles: 12907619 heartbeat IPC: 3.08491 cumulative IPC: 3.09894 (Simulation time: 0 hr 26 min 5 sec) 
Heartbeat CPU 0 instructions: 50000001 cycles: 16148096 heartbeat IPC: 3.08597 cumulative IPC: 3.09634 (Simulation time: 0 hr 32 min 36 sec) 

Warmup complete CPU 0 instructions: 50000001 cycles: 16148096 (Simulation time: 0 hr 32 min 36 sec) 

Heartbeat CPU 0 instructions: 60000000 cycles: 23887933 heartbeat IPC: 1.29202 cumulative IPC: 1.29202 (Simulation time: 0 hr 40 min 51 sec) 
Heartbeat CPU 0 instructions: 70000002 cycles: 31705965 heartbeat IPC: 1.27909 cumulative IPC: 1.28552 (Simulation time: 0 hr 49 min 14 sec) 
Heartbeat CPU 0 instructions: 80000000 cycles: 39201667 heartbeat IPC: 1.3341 cumulative IPC: 1.30132 (Simulation time: 0 hr 57 min 41 sec) 
Heartbeat CPU 0 instructions: 90000001 cycles: 47000488 heartbeat IPC: 1.28225 cumulative IPC: 1.2965 (Simulation time: 1 hr 5 min 56 sec) 
Heartbeat CPU 0 instructions: 100000000 cycles: 55065913 heartbeat IPC: 1.23986 cumulative IPC: 1.28476 (Simulation time: 1 hr 14 min 1 sec) 
Finished CPU 0 instructions: 50000000 cycles: 38917821 cumulative IPC: 1.28476 (Simulation time: 1 hr 14 min 1 sec) 

ChampSim completed all CPUs

Region of Interest Statistics

CPU 0 cumulative IPC: 1.28476 instructions: 50000000 cycles: 38917821
L1D TOTAL     ACCESS:   19302080  HIT:   18196929  MISS:    1105151
L1D LOAD      ACCESS:    7222191  HIT:    6742663  MISS:     479528
L1D RFO       ACCESS:    5116512  HIT:    5036904  MISS:      79608
L1D PREFETCH  ACCESS:    6963377  HIT:    6417362  MISS:     546015
L1D WRITEBACK ACCESS:          0  HIT:          0  MISS:          0
L1D PREFETCH  REQUESTED:    7265773  ISSUED:    7168217  USEFUL:     275770  USELESS:     270257
L1D AVERAGE MISS LATENCY: 25.4905 cycles
L1I TOTAL     ACCESS:   33670169  HIT:   33121972  MISS:     548197
L1I LOAD      ACCESS:    9275250  HIT:    9234551  MISS:      40699
L1I RFO       ACCESS:          0  HIT:          0  MISS:          0
L1I PREFETCH  ACCESS:   24394919  HIT:   23887421  MISS:     507498
L1I WRITEBACK ACCESS:          0  HIT:          0  MISS:          0
L1I PREFETCH  REQUESTED:   31447652  ISSUED:   31447652  USEFUL:     322838  USELESS:     184697
L1I AVERAGE MISS LATENCY: 20.2166 cycles
L2C TOTAL     ACCESS:    2777821  HIT:    2525235  MISS:     252586
L2C LOAD      ACCESS:     481729  HIT:     401797  MISS:      79932
L2C RFO       ACCESS:      74978  HIT:      36799  MISS:      38179
L2C PREFETCH  ACCESS:    1967357  HIT:    1833275  MISS:     134082
L2C WRITEBACK ACCESS:     253757  HIT:     253364  MISS:        393
L2C PREFETCH  REQUESTED:    1901885  ISSUED:    1901627  USEFUL:      31151  USELESS:     102259
L2C AVERAGE MISS LATENCY: 63.0645 cycles
LLC TOTAL     ACCESS:     662562  HIT:     590816  MISS:      71746
LLC LOAD      ACCESS:      79735  HIT:      69598  MISS:      10137
LLC RFO       ACCESS:      38178  HIT:      17771  MISS:      20407
LLC PREFETCH  ACCESS:     453314  HIT:     412975  MISS:      40339
LLC WRITEBACK ACCESS:      91335  HIT:      90472  MISS:        863
LLC PREFETCH  REQUESTED:          0  ISSUED:          0  USEFUL:      13056  USELESS:      26451
LLC AVERAGE MISS LATENCY: 188.142 cycles
Major fault: 0 Minor fault: 6867
CPU 0 L1I EPI prefetcher final stats
CPU 0 L1D next line prefetcher final stats

DRAM Statistics
 CHANNEL 0
 RQ ROW_BUFFER_HIT:      19709  ROW_BUFFER_MISS:      51172
 DBUS_CONGESTED:      38086
 WQ ROW_BUFFER_HIT:       4253  ROW_BUFFER_MISS:      23017  FULL:          0

 AVG_CONGESTED_CYCLE: 6

CPU 0 Branch Prediction Accuracy: 95.8872% MPKI: 9.67286 Average ROB Occupancy at Mispredict: 67.9965

Branch types
NOT_BRANCH: 38240109 76.4802%
BRANCH_DIRECT_JUMP: 653296 1.30659%
BRANCH_INDIRECT: 37098 0.074196%
BRANCH_CONDITIONAL: 8897820 17.7956%
BRANCH_DIRECT_CALL: 992620 1.98524%
BRANCH_INDIRECT_CALL: 93046 0.186092%
BRANCH_RETURN: 1085674 2.17135%
BRANCH_OTHER: 0 0%

