Initialize SIGNATURE TABLE
ST_SET: 1
ST_WAY: 256
ST_TAG_BIT: 16
ST_TAG_MASK: ffff

Initialize PATTERN TABLE
PT_SET: 512
PT_WAY: 4
SIG_DELTA_BIT: 7
C_SIG_BIT: 4
C_DELTA_BIT: 4

Initialize PREFETCH FILTER
FILTER_SET: 1024

*** ChampSim Multicore Out-of-Order Simulator ***

Warmup Instructions: 50000000
Simulation Instructions: 50000000
Number of CPUs: 1
LLC sets: 2048
LLC ways: 16
Off-chip DRAM Size: 4096 MB Channels: 1 Width: 64-bit Data Rate: 3200 MT/s

CPU 0 runs /home/sankara2004/240C/hw1/ChampSim_2/ChampSim/ipc1_public/spec_gcc_003.champsimtrace.xz
CPU 0 EPI prefetcher
CPU 0 L1D next line prefetcher
Heartbeat CPU 0 instructions: 10000001 cycles: 3510349 heartbeat IPC: 2.84872 cumulative IPC: 2.84872 (Simulation time: 0 hr 6 min 30 sec) 
Heartbeat CPU 0 instructions: 20000000 cycles: 6996743 heartbeat IPC: 2.86829 cumulative IPC: 2.85847 (Simulation time: 0 hr 12 min 58 sec) 
Heartbeat CPU 0 instructions: 30000002 cycles: 10448151 heartbeat IPC: 2.89737 cumulative IPC: 2.87132 (Simulation time: 0 hr 19 min 31 sec) 
Heartbeat CPU 0 instructions: 40000000 cycles: 13931259 heartbeat IPC: 2.871 cumulative IPC: 2.87124 (Simulation time: 0 hr 26 min 1 sec) 
Heartbeat CPU 0 instructions: 50000001 cycles: 17240127 heartbeat IPC: 3.02218 cumulative IPC: 2.90021 (Simulation time: 0 hr 32 min 30 sec) 

Warmup complete CPU 0 instructions: 50000001 cycles: 17240127 (Simulation time: 0 hr 32 min 30 sec) 

Heartbeat CPU 0 instructions: 60000000 cycles: 57806116 heartbeat IPC: 0.246512 cumulative IPC: 0.246512 (Simulation time: 0 hr 40 min 27 sec) 
Heartbeat CPU 0 instructions: 70000000 cycles: 101419736 heartbeat IPC: 0.229286 cumulative IPC: 0.237587 (Simulation time: 0 hr 48 min 34 sec) 
Heartbeat CPU 0 instructions: 80000003 cycles: 145721406 heartbeat IPC: 0.225725 cumulative IPC: 0.233497 (Simulation time: 0 hr 56 min 42 sec) 
Heartbeat CPU 0 instructions: 90000002 cycles: 182763630 heartbeat IPC: 0.269962 cumulative IPC: 0.241658 (Simulation time: 1 hr 4 min 38 sec) 
Heartbeat CPU 0 instructions: 100000000 cycles: 229543372 heartbeat IPC: 0.213768 cumulative IPC: 0.235512 (Simulation time: 1 hr 12 min 32 sec) 
Finished CPU 0 instructions: 50000000 cycles: 212303246 cumulative IPC: 0.235512 (Simulation time: 1 hr 12 min 32 sec) 

ChampSim completed all CPUs

Region of Interest Statistics

CPU 0 cumulative IPC: 0.235512 instructions: 50000000 cycles: 212303246
L1D TOTAL     ACCESS:   16803278  HIT:   11078814  MISS:    5724464
L1D LOAD      ACCESS:    4546128  HIT:    4162677  MISS:     383451
L1D RFO       ACCESS:    8201019  HIT:    3149313  MISS:    5051706
L1D PREFETCH  ACCESS:    4056131  HIT:    3766824  MISS:     289307
L1D WRITEBACK ACCESS:          0  HIT:          0  MISS:          0
L1D PREFETCH  REQUESTED:    4564065  ISSUED:    4503869  USEFUL:     151850  USELESS:     137637
L1D AVERAGE MISS LATENCY: 510.768 cycles
L1I TOTAL     ACCESS:   28545550  HIT:   27262349  MISS:    1283201
L1I LOAD      ACCESS:   11294024  HIT:   11224312  MISS:      69712
L1I RFO       ACCESS:          0  HIT:          0  MISS:          0
L1I PREFETCH  ACCESS:   17251526  HIT:   16038037  MISS:    1213489
L1I WRITEBACK ACCESS:          0  HIT:          0  MISS:          0
L1I PREFETCH  REQUESTED:   25681020  ISSUED:   25681020  USEFUL:     765697  USELESS:     447721
L1I AVERAGE MISS LATENCY: 68.2176 cycles
L2C TOTAL     ACCESS:   12535596  HIT:    6454248  MISS:    6081348
L2C LOAD      ACCESS:     251582  HIT:      72411  MISS:     179171
L2C RFO       ACCESS:    5049922  HIT:       6452  MISS:    5043470
L2C PREFETCH  ACCESS:    2076246  HIT:    1217919  MISS:     858327
L2C WRITEBACK ACCESS:    5157846  HIT:    5157466  MISS:        380
L2C PREFETCH  REQUESTED:    2289671  ISSUED:    2289519  USEFUL:      28681  USELESS:     826753
L2C AVERAGE MISS LATENCY: 480.731 cycles
LLC TOTAL     ACCESS:   12009556  HIT:    7214665  MISS:    4794891
LLC LOAD      ACCESS:     179140  HIT:     135008  MISS:      44132
LLC RFO       ACCESS:    5043471  HIT:     569421  MISS:    4474050
LLC PREFETCH  ACCESS:    1653081  HIT:    1376372  MISS:     276709
LLC WRITEBACK ACCESS:    5133864  HIT:    5133864  MISS:          0
LLC PREFETCH  REQUESTED:          0  ISSUED:          0  USEFUL:      13380  USELESS:     263165
LLC AVERAGE MISS LATENCY: 580.102 cycles
Major fault: 0 Minor fault: 2821
CPU 0 L1I EPI prefetcher final stats
CPU 0 L1D next line prefetcher final stats

DRAM Statistics
 CHANNEL 0
 RQ ROW_BUFFER_HIT:    1446107  ROW_BUFFER_MISS:    3348750
 DBUS_CONGESTED:    8332124
 WQ ROW_BUFFER_HIT:    1199168  ROW_BUFFER_MISS:    3303609  FULL:          0

 AVG_CONGESTED_CYCLE: 6

CPU 0 Branch Prediction Accuracy: 99.665% MPKI: 0.78342 Average ROB Occupancy at Mispredict: 125.56

Branch types
NOT_BRANCH: 38305856 76.6117%
BRANCH_DIRECT_JUMP: 384281 0.768562%
BRANCH_INDIRECT: 71949 0.143898%
BRANCH_CONDITIONAL: 9879825 19.7597%
BRANCH_DIRECT_CALL: 650586 1.30117%
BRANCH_INDIRECT_CALL: 28456 0.056912%
BRANCH_RETURN: 679046 1.35809%
BRANCH_OTHER: 0 0%

