Initialize SIGNATURE TABLE
ST_SET: 1
ST_WAY: 256
ST_TAG_BIT: 16
ST_TAG_MASK: ffff

Initialize PATTERN TABLE
PT_SET: 512
PT_WAY: 4
SIG_DELTA_BIT: 7
C_SIG_BIT: 4
C_DELTA_BIT: 4

Initialize PREFETCH FILTER
FILTER_SET: 1024

*** ChampSim Multicore Out-of-Order Simulator ***

Warmup Instructions: 50000000
Simulation Instructions: 50000000
Number of CPUs: 1
LLC sets: 2048
LLC ways: 16
Off-chip DRAM Size: 4096 MB Channels: 1 Width: 64-bit Data Rate: 3200 MT/s

CPU 0 runs /home/sankara2004/240C/hw1/ChampSim_2/ChampSim/ipc1_public/spec_perlbench_001.champsimtrace.xz
LHT KB: 126.25
SCC KB: 1.56
Total KB: 127.81
CPU 0 L1D next line prefetcher
Heartbeat CPU 0 instructions: 10000000 cycles: 3275816 heartbeat IPC: 3.05267 cumulative IPC: 3.05267 (Simulation time: 0 hr 5 min 56 sec) 
Heartbeat CPU 0 instructions: 20000000 cycles: 6540373 heartbeat IPC: 3.0632 cumulative IPC: 3.05793 (Simulation time: 0 hr 11 min 45 sec) 
Heartbeat CPU 0 instructions: 30000002 cycles: 9856981 heartbeat IPC: 3.01513 cumulative IPC: 3.04353 (Simulation time: 0 hr 17 min 35 sec) 
Heartbeat CPU 0 instructions: 40000002 cycles: 13112418 heartbeat IPC: 3.07178 cumulative IPC: 3.05054 (Simulation time: 0 hr 23 min 21 sec) 
Heartbeat CPU 0 instructions: 50000001 cycles: 16386173 heartbeat IPC: 3.0546 cumulative IPC: 3.05135 (Simulation time: 0 hr 29 min 4 sec) 

Warmup complete CPU 0 instructions: 50000001 cycles: 16386173 (Simulation time: 0 hr 29 min 4 sec) 

Heartbeat CPU 0 instructions: 60000001 cycles: 24626950 heartbeat IPC: 1.21348 cumulative IPC: 1.21348 (Simulation time: 0 hr 36 min 42 sec) 
Heartbeat CPU 0 instructions: 70000003 cycles: 32740479 heartbeat IPC: 1.23251 cumulative IPC: 1.22292 (Simulation time: 0 hr 44 min 30 sec) 
Heartbeat CPU 0 instructions: 80000000 cycles: 41174476 heartbeat IPC: 1.18568 cumulative IPC: 1.21025 (Simulation time: 0 hr 52 min 21 sec) 
Heartbeat CPU 0 instructions: 90000000 cycles: 46891214 heartbeat IPC: 1.74925 cumulative IPC: 1.31126 (Simulation time: 0 hr 59 min 58 sec) 
Heartbeat CPU 0 instructions: 100000002 cycles: 52749432 heartbeat IPC: 1.707 cumulative IPC: 1.37501 (Simulation time: 1 hr 7 min 28 sec) 
Finished CPU 0 instructions: 50000001 cycles: 36363259 cumulative IPC: 1.37501 (Simulation time: 1 hr 7 min 28 sec) 

ChampSim completed all CPUs

Region of Interest Statistics

CPU 0 cumulative IPC: 1.37501 instructions: 50000001 cycles: 36363259
L1D TOTAL     ACCESS:   20700034  HIT:   20284951  MISS:     415083
L1D LOAD      ACCESS:    7179655  HIT:    6965946  MISS:     213709
L1D RFO       ACCESS:    6541993  HIT:    6523483  MISS:      18510
L1D PREFETCH  ACCESS:    6978386  HIT:    6795522  MISS:     182864
L1D WRITEBACK ACCESS:          0  HIT:          0  MISS:          0
L1D PREFETCH  REQUESTED:    7195561  ISSUED:    7079494  USEFUL:      55185  USELESS:     127674
L1D AVERAGE MISS LATENCY: 58.8789 cycles
L1I TOTAL     ACCESS:   17898957  HIT:   16975969  MISS:     922988
L1I LOAD      ACCESS:    9143129  HIT:    9035570  MISS:     107559
L1I RFO       ACCESS:          0  HIT:          0  MISS:          0
L1I PREFETCH  ACCESS:    8755828  HIT:    7940399  MISS:     815429
L1I WRITEBACK ACCESS:          0  HIT:          0  MISS:          0
L1I PREFETCH  REQUESTED:    9822754  ISSUED:    9822754  USEFUL:     393891  USELESS:     421537
L1I AVERAGE MISS LATENCY: 15.0229 cycles
L2C TOTAL     ACCESS:    1790890  HIT:    1619718  MISS:     171172
L2C LOAD      ACCESS:     220253  HIT:     143073  MISS:      77180
L2C RFO       ACCESS:      18267  HIT:      12714  MISS:       5553
L2C PREFETCH  ACCESS:    1473429  HIT:    1385496  MISS:      87933
L2C WRITEBACK ACCESS:      78941  HIT:      78435  MISS:        506
L2C PREFETCH  REQUESTED:     918669  ISSUED:     918660  USEFUL:       5393  USELESS:      82472
L2C AVERAGE MISS LATENCY: 120.264 cycles
LLC TOTAL     ACCESS:     412198  HIT:     272150  MISS:     140048
LLC LOAD      ACCESS:      77178  HIT:      29097  MISS:      48081
LLC RFO       ACCESS:       5553  HIT:       2489  MISS:       3064
LLC PREFETCH  ACCESS:     303554  HIT:     215116  MISS:      88438
LLC WRITEBACK ACCESS:      25913  HIT:      25448  MISS:        465
LLC PREFETCH  REQUESTED:          0  ISSUED:          0  USEFUL:      12691  USELESS:      76074
LLC AVERAGE MISS LATENCY: 160.501 cycles
Major fault: 0 Minor fault: 6371
CPU 0 L1D next line prefetcher final stats

DRAM Statistics
 CHANNEL 0
 RQ ROW_BUFFER_HIT:      32093  ROW_BUFFER_MISS:     107490
 DBUS_CONGESTED:      57172
 WQ ROW_BUFFER_HIT:       4132  ROW_BUFFER_MISS:      13099  FULL:          0

 AVG_CONGESTED_CYCLE: 4

CPU 0 Branch Prediction Accuracy: 98.7418% MPKI: 2.47758 Average ROB Occupancy at Mispredict: 79.2306

Branch types
NOT_BRANCH: 40154100 80.3082%
BRANCH_DIRECT_JUMP: 817094 1.63419%
BRANCH_INDIRECT: 303787 0.607574%
BRANCH_CONDITIONAL: 7492103 14.9842%
BRANCH_DIRECT_CALL: 471777 0.943554%
BRANCH_INDIRECT_CALL: 144546 0.289092%
BRANCH_RETURN: 616324 1.23265%
BRANCH_OTHER: 0 0%

