Initialize SIGNATURE TABLE
ST_SET: 1
ST_WAY: 256
ST_TAG_BIT: 16
ST_TAG_MASK: ffff

Initialize PATTERN TABLE
PT_SET: 512
PT_WAY: 4
SIG_DELTA_BIT: 7
C_SIG_BIT: 4
C_DELTA_BIT: 4

Initialize PREFETCH FILTER
FILTER_SET: 1024

*** ChampSim Multicore Out-of-Order Simulator ***

Warmup Instructions: 49000000
Simulation Instructions: 49000000
Number of CPUs: 1
LLC sets: 2048
LLC ways: 16
Off-chip DRAM Size: 4096 MB Channels: 1 Width: 64-bit Data Rate: 3200 MT/s

CPU 0 runs /home/sankara2004/240C/hw1/ChampSim/ipc1_public/client_001.champsimtrace.xz
CPU 0 Temporal Ancestry L1I prefetcher
CPU 0 L1D next line prefetcher
Heartbeat CPU 0 instructions: 10000003 cycles: 3411608 heartbeat IPC: 2.93117 cumulative IPC: 2.93117 (Simulation time: 0 hr 1 min 34 sec) 
Heartbeat CPU 0 instructions: 20000001 cycles: 7123163 heartbeat IPC: 2.69429 cumulative IPC: 2.80774 (Simulation time: 0 hr 3 min 31 sec) 
Heartbeat CPU 0 instructions: 30000001 cycles: 10488825 heartbeat IPC: 2.97118 cumulative IPC: 2.86019 (Simulation time: 0 hr 5 min 26 sec) 
Heartbeat CPU 0 instructions: 40000003 cycles: 14359923 heartbeat IPC: 2.58325 cumulative IPC: 2.78553 (Simulation time: 0 hr 7 min 27 sec) 

Warmup complete CPU 0 instructions: 49000002 cycles: 17278091 (Simulation time: 0 hr 9 min 20 sec) 

Heartbeat CPU 0 instructions: 50000002 cycles: 18199366 heartbeat IPC: 2.60454 cumulative IPC: 1.08545 (Simulation time: 0 hr 9 min 31 sec) 
Heartbeat CPU 0 instructions: 60000000 cycles: 27430210 heartbeat IPC: 1.08332 cumulative IPC: 1.08352 (Simulation time: 0 hr 11 min 31 sec) 
Heartbeat CPU 0 instructions: 70000000 cycles: 33915870 heartbeat IPC: 1.54186 cumulative IPC: 1.26219 (Simulation time: 0 hr 13 min 31 sec) 
Heartbeat CPU 0 instructions: 80000002 cycles: 43383756 heartbeat IPC: 1.0562 cumulative IPC: 1.18748 (Simulation time: 0 hr 15 min 46 sec) 
Heartbeat CPU 0 instructions: 90000000 cycles: 49734469 heartbeat IPC: 1.57463 cumulative IPC: 1.26323 (Simulation time: 0 hr 19 min 13 sec) 
Finished CPU 0 instructions: 49000001 cycles: 39598989 cumulative IPC: 1.23741 (Simulation time: 0 hr 20 min 57 sec) 

ChampSim completed all CPUs

Region of Interest Statistics

CPU 0 cumulative IPC: 1.23741 instructions: 49000001 cycles: 39598989
L1D TOTAL     ACCESS:   20843459  HIT:   20011041  MISS:     832418
L1D LOAD      ACCESS:    8683583  HIT:    8292060  MISS:     391523
L1D RFO       ACCESS:    3912836  HIT:    3849531  MISS:      63305
L1D PREFETCH  ACCESS:    8247040  HIT:    7869450  MISS:     377590
L1D WRITEBACK ACCESS:          0  HIT:          0  MISS:          0
L1D PREFETCH  REQUESTED:    8730826  ISSUED:    8432703  USEFUL:     125790  USELESS:     251936
L1D AVERAGE MISS LATENCY: 51.8519 cycles
L1I TOTAL     ACCESS:   11017216  HIT:    9161037  MISS:    1856179
L1I LOAD      ACCESS:    8810959  HIT:    8782729  MISS:      28230
L1I RFO       ACCESS:          0  HIT:          0  MISS:          0
L1I PREFETCH  ACCESS:    2206257  HIT:     378308  MISS:    1827949
L1I WRITEBACK ACCESS:          0  HIT:          0  MISS:          0
L1I PREFETCH  REQUESTED:    4533345  ISSUED:    4523023  USEFUL:     571040  USELESS:    1256932
L1I AVERAGE MISS LATENCY: 16.567 cycles
L2C TOTAL     ACCESS:    3723289  HIT:    3389399  MISS:     333890
L2C LOAD      ACCESS:     386658  HIT:     269248  MISS:     117410
L2C RFO       ACCESS:      62490  HIT:      20700  MISS:      41790
L2C PREFETCH  ACCESS:    3086623  HIT:    2912468  MISS:     174155
L2C WRITEBACK ACCESS:     187518  HIT:     186983  MISS:        535
L2C PREFETCH  REQUESTED:    1808490  ISSUED:    1805742  USEFUL:      13403  USELESS:     161136
L2C AVERAGE MISS LATENCY: 109.065 cycles
LLC TOTAL     ACCESS:     891477  HIT:     673009  MISS:     218468
LLC LOAD      ACCESS:     117104  HIT:      71137  MISS:      45967
LLC RFO       ACCESS:      41790  HIT:       8593  MISS:      33197
LLC PREFETCH  ACCESS:     622686  HIT:     484139  MISS:     138547
LLC WRITEBACK ACCESS:     109897  HIT:     109140  MISS:        757
LLC PREFETCH  REQUESTED:          0  ISSUED:          0  USEFUL:      27180  USELESS:     118524
LLC AVERAGE MISS LATENCY: 194.683 cycles
Major fault: 0 Minor fault: 3431
CPU 0 L1D next line prefetcher final stats

DRAM Statistics
 CHANNEL 0
 RQ ROW_BUFFER_HIT:      49073  ROW_BUFFER_MISS:     168628
 DBUS_CONGESTED:     120714
 WQ ROW_BUFFER_HIT:      16699  ROW_BUFFER_MISS:      67174  FULL:          0

 AVG_CONGESTED_CYCLE: 5

CPU 0 Branch Prediction Accuracy: 98.0168% MPKI: 3.42171 Average ROB Occupancy at Mispredict: 87.0541

Branch types
NOT_BRANCH: 40545387 82.7457%
BRANCH_DIRECT_JUMP: 449507 0.917361%
BRANCH_INDIRECT: 20262 0.041351%
BRANCH_CONDITIONAL: 6567629 13.4033%
BRANCH_DIRECT_CALL: 478731 0.977002%
BRANCH_INDIRECT_CALL: 229658 0.46869%
BRANCH_RETURN: 708558 1.44604%
BRANCH_OTHER: 0 0%

