Initialize SIGNATURE TABLE
ST_SET: 1
ST_WAY: 256
ST_TAG_BIT: 16
ST_TAG_MASK: ffff

Initialize PATTERN TABLE
PT_SET: 512
PT_WAY: 4
SIG_DELTA_BIT: 7
C_SIG_BIT: 4
C_DELTA_BIT: 4

Initialize PREFETCH FILTER
FILTER_SET: 1024

*** ChampSim Multicore Out-of-Order Simulator ***

Warmup Instructions: 49000000
Simulation Instructions: 49000000
Number of CPUs: 1
LLC sets: 2048
LLC ways: 16
Off-chip DRAM Size: 4096 MB Channels: 1 Width: 64-bit Data Rate: 3200 MT/s

CPU 0 runs /home/sankara2004/240C/hw1/ChampSim/ipc1_public/client_001.champsimtrace.xz
CPU 0 L1I next line prefetcher
CPU 0 L1D next line prefetcher
Heartbeat CPU 0 instructions: 10000003 cycles: 3410117 heartbeat IPC: 2.93245 cumulative IPC: 2.93245 (Simulation time: 0 hr 0 min 29 sec) 
Heartbeat CPU 0 instructions: 20000001 cycles: 7118403 heartbeat IPC: 2.69666 cumulative IPC: 2.80962 (Simulation time: 0 hr 0 min 59 sec) 
Heartbeat CPU 0 instructions: 30000001 cycles: 10481151 heartbeat IPC: 2.97376 cumulative IPC: 2.86228 (Simulation time: 0 hr 1 min 28 sec) 
Heartbeat CPU 0 instructions: 40000003 cycles: 14350834 heartbeat IPC: 2.58419 cumulative IPC: 2.78729 (Simulation time: 0 hr 2 min 1 sec) 

Warmup complete CPU 0 instructions: 49000002 cycles: 17266103 (Simulation time: 0 hr 2 min 28 sec) 

Heartbeat CPU 0 instructions: 50000002 cycles: 18181156 heartbeat IPC: 2.61075 cumulative IPC: 1.09283 (Simulation time: 0 hr 2 min 31 sec) 
Heartbeat CPU 0 instructions: 60000000 cycles: 27210751 heartbeat IPC: 1.10747 cumulative IPC: 1.10612 (Simulation time: 0 hr 3 min 10 sec) 
Heartbeat CPU 0 instructions: 70000000 cycles: 33554717 heartbeat IPC: 1.5763 cumulative IPC: 1.28924 (Simulation time: 0 hr 3 min 40 sec) 
Heartbeat CPU 0 instructions: 80000002 cycles: 42886363 heartbeat IPC: 1.07162 cumulative IPC: 1.20998 (Simulation time: 0 hr 4 min 23 sec) 
Heartbeat CPU 0 instructions: 90000000 cycles: 49094192 heartbeat IPC: 1.61087 cumulative IPC: 1.28817 (Simulation time: 0 hr 4 min 53 sec) 
Finished CPU 0 instructions: 49000001 cycles: 38786546 cumulative IPC: 1.26332 (Simulation time: 0 hr 5 min 21 sec) 

ChampSim completed all CPUs

Region of Interest Statistics

CPU 0 cumulative IPC: 1.26332 instructions: 49000001 cycles: 38786546
L1D TOTAL     ACCESS:   20825494  HIT:   19993091  MISS:     832403
L1D LOAD      ACCESS:    8671697  HIT:    8280741  MISS:     390956
L1D RFO       ACCESS:    3915764  HIT:    3852596  MISS:      63168
L1D PREFETCH  ACCESS:    8238033  HIT:    7859754  MISS:     378279
L1D WRITEBACK ACCESS:          0  HIT:          0  MISS:          0
L1D PREFETCH  REQUESTED:    8717941  ISSUED:    8418432  USEFUL:     126428  USELESS:     251987
L1D AVERAGE MISS LATENCY: 49.2814 cycles
L1I TOTAL     ACCESS:   10107738  HIT:    9641540  MISS:     466198
L1I LOAD      ACCESS:    8751570  HIT:    8735511  MISS:      16059
L1I RFO       ACCESS:          0  HIT:          0  MISS:          0
L1I PREFETCH  ACCESS:    1356168  HIT:     906029  MISS:     450139
L1I WRITEBACK ACCESS:          0  HIT:          0  MISS:          0
L1I PREFETCH  REQUESTED:    1392723  ISSUED:    1392714  USEFUL:     316729  USELESS:     133443
L1I AVERAGE MISS LATENCY: 19.2942 cycles
L2C TOTAL     ACCESS:    1974693  HIT:    1668047  MISS:     306646
L2C LOAD      ACCESS:     382608  HIT:     268949  MISS:     113659
L2C RFO       ACCESS:      62409  HIT:      21547  MISS:      40862
L2C PREFETCH  ACCESS:    1342156  HIT:    1190254  MISS:     151902
L2C WRITEBACK ACCESS:     187520  HIT:     187297  MISS:        223
L2C PREFETCH  REQUESTED:    1728793  ISSUED:    1724606  USEFUL:      12368  USELESS:     139908
L2C AVERAGE MISS LATENCY: 107.086 cycles
LLC TOTAL     ACCESS:     802996  HIT:     606569  MISS:     196427
LLC LOAD      ACCESS:     113315  HIT:      71090  MISS:      42225
LLC RFO       ACCESS:      40859  HIT:       8656  MISS:      32203
LLC PREFETCH  ACCESS:     540597  HIT:     419270  MISS:     121327
LLC WRITEBACK ACCESS:     108225  HIT:     107553  MISS:        672
LLC PREFETCH  REQUESTED:          0  ISSUED:          0  USEFUL:      29040  USELESS:     100581
LLC AVERAGE MISS LATENCY: 187.198 cycles
Major fault: 0 Minor fault: 3427
Prefetcher storage:
 Miss Ahead Prediction Table 73728 bytes
 I-Shadow cache 408 bytes
Touched + WorthPF tables 24576 bytes 
MMA filter 123 bytes 
FNL filter 272 bytes 
TOTAL PREFETCHER STORAGE SIZE: 99107 bytes
CPU 0 L1I next line prefetcher final stats
CPU 0 L1D next line prefetcher final stats

DRAM Statistics
 CHANNEL 0
 RQ ROW_BUFFER_HIT:      49088  ROW_BUFFER_MISS:     146653
 DBUS_CONGESTED:     120986
 WQ ROW_BUFFER_HIT:      16128  ROW_BUFFER_MISS:      67195  FULL:          0

 AVG_CONGESTED_CYCLE: 5

CPU 0 Branch Prediction Accuracy: 98.0168% MPKI: 3.42171 Average ROB Occupancy at Mispredict: 87.4772

Branch types
NOT_BRANCH: 40545387 82.7457%
BRANCH_DIRECT_JUMP: 449507 0.917361%
BRANCH_INDIRECT: 20262 0.041351%
BRANCH_CONDITIONAL: 6567629 13.4033%
BRANCH_DIRECT_CALL: 478731 0.977002%
BRANCH_INDIRECT_CALL: 229658 0.46869%
BRANCH_RETURN: 708558 1.44604%
BRANCH_OTHER: 0 0%

