Initialize SIGNATURE TABLE
ST_SET: 1
ST_WAY: 256
ST_TAG_BIT: 16
ST_TAG_MASK: ffff

Initialize PATTERN TABLE
PT_SET: 512
PT_WAY: 4
SIG_DELTA_BIT: 7
C_SIG_BIT: 4
C_DELTA_BIT: 4

Initialize PREFETCH FILTER
FILTER_SET: 1024

*** ChampSim Multicore Out-of-Order Simulator ***

Warmup Instructions: 49000000
Simulation Instructions: 49000000
Number of CPUs: 1
LLC sets: 2048
LLC ways: 16
Off-chip DRAM Size: 4096 MB Channels: 1 Width: 64-bit Data Rate: 3200 MT/s

CPU 0 runs /home/sankara2004/240C/hw1/ChampSim/ipc1_public/client_001.champsimtrace.xz
CPU 0 L1D next line prefetcher
Heartbeat CPU 0 instructions: 10000003 cycles: 3410084 heartbeat IPC: 2.93248 cumulative IPC: 2.93248 (Simulation time: 0 hr 0 min 39 sec) 
Heartbeat CPU 0 instructions: 20000001 cycles: 7118336 heartbeat IPC: 2.69669 cumulative IPC: 2.80965 (Simulation time: 0 hr 1 min 19 sec) 
Heartbeat CPU 0 instructions: 30000001 cycles: 10480939 heartbeat IPC: 2.97389 cumulative IPC: 2.86234 (Simulation time: 0 hr 1 min 58 sec) 
Heartbeat CPU 0 instructions: 40000003 cycles: 14350309 heartbeat IPC: 2.5844 cumulative IPC: 2.7874 (Simulation time: 0 hr 2 min 44 sec) 

Warmup complete CPU 0 instructions: 49000002 cycles: 17265585 (Simulation time: 0 hr 3 min 18 sec) 

Heartbeat CPU 0 instructions: 50000002 cycles: 18182956 heartbeat IPC: 2.60916 cumulative IPC: 1.09007 (Simulation time: 0 hr 3 min 22 sec) 
Heartbeat CPU 0 instructions: 60000000 cycles: 27218114 heartbeat IPC: 1.10679 cumulative IPC: 1.10525 (Simulation time: 0 hr 4 min 23 sec) 
Heartbeat CPU 0 instructions: 70000000 cycles: 33518091 heartbeat IPC: 1.58731 cumulative IPC: 1.29211 (Simulation time: 0 hr 5 min 3 sec) 
Heartbeat CPU 0 instructions: 80000002 cycles: 42847112 heartbeat IPC: 1.07192 cumulative IPC: 1.21181 (Simulation time: 0 hr 6 min 16 sec) 
Heartbeat CPU 0 instructions: 90000000 cycles: 49002074 heartbeat IPC: 1.62471 cumulative IPC: 1.29189 (Simulation time: 0 hr 6 min 52 sec) 
Finished CPU 0 instructions: 49000001 cycles: 38722356 cumulative IPC: 1.26542 (Simulation time: 0 hr 7 min 56 sec) 

ChampSim completed all CPUs

Region of Interest Statistics

CPU 0 cumulative IPC: 1.26542 instructions: 49000001 cycles: 38722356
L1D TOTAL     ACCESS:   20841410  HIT:   20009010  MISS:     832400
L1D LOAD      ACCESS:    8679394  HIT:    8288676  MISS:     390718
L1D RFO       ACCESS:    3915409  HIT:    3852206  MISS:      63203
L1D PREFETCH  ACCESS:    8246607  HIT:    7868128  MISS:     378479
L1D WRITEBACK ACCESS:          0  HIT:          0  MISS:          0
L1D PREFETCH  REQUESTED:    8725664  ISSUED:    8426390  USEFUL:     126619  USELESS:     251996
L1D AVERAGE MISS LATENCY: 49.2696 cycles
L1I TOTAL     ACCESS:    9182501  HIT:    8808748  MISS:     373753
L1I LOAD      ACCESS:    8741054  HIT:    8722013  MISS:      19041
L1I RFO       ACCESS:          0  HIT:          0  MISS:          0
L1I PREFETCH  ACCESS:     441447  HIT:      86735  MISS:     354712
L1I WRITEBACK ACCESS:          0  HIT:          0  MISS:          0
L1I PREFETCH  REQUESTED:     487278  ISSUED:     487278  USEFUL:     280067  USELESS:      74583
L1I AVERAGE MISS LATENCY: 20.3839 cycles
L2C TOTAL     ACCESS:    1841364  HIT:    1533525  MISS:     307839
L2C LOAD      ACCESS:     378237  HIT:     265519  MISS:     112718
L2C RFO       ACCESS:      62406  HIT:      21441  MISS:      40965
L2C PREFETCH  ACCESS:    1213207  HIT:    1059278  MISS:     153929
L2C WRITEBACK ACCESS:     187514  HIT:     187287  MISS:        227
L2C PREFETCH  REQUESTED:    1447797  ISSUED:    1443603  USEFUL:      12403  USELESS:     141866
L2C AVERAGE MISS LATENCY: 106.802 cycles
LLC TOTAL     ACCESS:     806185  HIT:     607354  MISS:     198831
LLC LOAD      ACCESS:     112397  HIT:      71080  MISS:      41317
LLC RFO       ACCESS:      40965  HIT:       8578  MISS:      32387
LLC PREFETCH  ACCESS:     544513  HIT:     420062  MISS:     124451
LLC WRITEBACK ACCESS:     108310  HIT:     107634  MISS:        676
LLC PREFETCH  REQUESTED:          0  ISSUED:          0  USEFUL:      29751  USELESS:     102440
LLC AVERAGE MISS LATENCY: 187.99 cycles
Major fault: 0 Minor fault: 3426
CPU 0 L1D next line prefetcher final stats

DRAM Statistics
 CHANNEL 0
 RQ ROW_BUFFER_HIT:      49425  ROW_BUFFER_MISS:     148724
 DBUS_CONGESTED:     122333
 WQ ROW_BUFFER_HIT:      16741  ROW_BUFFER_MISS:      67300  FULL:          0

 AVG_CONGESTED_CYCLE: 5

CPU 0 Branch Prediction Accuracy: 98.0168% MPKI: 3.42171 Average ROB Occupancy at Mispredict: 87.3611

Branch types
NOT_BRANCH: 40545387 82.7457%
BRANCH_DIRECT_JUMP: 449507 0.917361%
BRANCH_INDIRECT: 20262 0.041351%
BRANCH_CONDITIONAL: 6567629 13.4033%
BRANCH_DIRECT_CALL: 478731 0.977002%
BRANCH_INDIRECT_CALL: 229658 0.46869%
BRANCH_RETURN: 708558 1.44604%
BRANCH_OTHER: 0 0%

