Initialize SIGNATURE TABLE
ST_SET: 1
ST_WAY: 256
ST_TAG_BIT: 16
ST_TAG_MASK: ffff

Initialize PATTERN TABLE
PT_SET: 512
PT_WAY: 4
SIG_DELTA_BIT: 7
C_SIG_BIT: 4
C_DELTA_BIT: 4

Initialize PREFETCH FILTER
FILTER_SET: 1024

*** ChampSim Multicore Out-of-Order Simulator ***

Warmup Instructions: 50000000
Simulation Instructions: 50000000
Number of CPUs: 1
LLC sets: 2048
LLC ways: 16
Off-chip DRAM Size: 4096 MB Channels: 1 Width: 64-bit Data Rate: 3200 MT/s

CPU 0 runs /home/sankara2004/240C/hw1/ChampSim/ipc1_public/client_001.champsimtrace.xz
CPU 0 L1D next line prefetcher
Heartbeat CPU 0 instructions: 10000003 cycles: 3410447 heartbeat IPC: 2.93217 cumulative IPC: 2.93217 (Simulation time: 0 hr 1 min 4 sec) 
Heartbeat CPU 0 instructions: 20000001 cycles: 7118816 heartbeat IPC: 2.6966 cumulative IPC: 2.80946 (Simulation time: 0 hr 2 min 7 sec) 
Heartbeat CPU 0 instructions: 30000001 cycles: 10481524 heartbeat IPC: 2.97379 cumulative IPC: 2.86218 (Simulation time: 0 hr 3 min 10 sec) 
Heartbeat CPU 0 instructions: 40000003 cycles: 14351221 heartbeat IPC: 2.58418 cumulative IPC: 2.78722 (Simulation time: 0 hr 4 min 17 sec) 
Heartbeat CPU 0 instructions: 50000003 cycles: 17648014 heartbeat IPC: 3.03325 cumulative IPC: 2.83318 (Simulation time: 0 hr 5 min 23 sec) 

Warmup complete CPU 0 instructions: 50000003 cycles: 17648014 (Simulation time: 0 hr 5 min 23 sec) 

Heartbeat CPU 0 instructions: 60000000 cycles: 26711950 heartbeat IPC: 1.10327 cumulative IPC: 1.10327 (Simulation time: 0 hr 6 min 48 sec) 
Heartbeat CPU 0 instructions: 70000000 cycles: 33088484 heartbeat IPC: 1.56825 cumulative IPC: 1.2953 (Simulation time: 0 hr 7 min 58 sec) 
Heartbeat CPU 0 instructions: 80000002 cycles: 42441178 heartbeat IPC: 1.06921 cumulative IPC: 1.21001 (Simulation time: 0 hr 9 min 22 sec) 
Heartbeat CPU 0 instructions: 90000000 cycles: 48667295 heartbeat IPC: 1.60614 cumulative IPC: 1.28952 (Simulation time: 0 hr 10 min 31 sec) 
Heartbeat CPU 0 instructions: 100000002 cycles: 57515856 heartbeat IPC: 1.13013 cumulative IPC: 1.25414 (Simulation time: 0 hr 11 min 46 sec) 
Finished CPU 0 instructions: 50000003 cycles: 39867843 cumulative IPC: 1.25414 (Simulation time: 0 hr 11 min 46 sec) 

ChampSim completed all CPUs

Region of Interest Statistics

CPU 0 cumulative IPC: 1.25414 instructions: 50000003 cycles: 39867843
L1D TOTAL     ACCESS:   21226551  HIT:   20390186  MISS:     836365
L1D LOAD      ACCESS:    8816407  HIT:    8421297  MISS:     395110
L1D RFO       ACCESS:    4038810  HIT:    3979709  MISS:      59101
L1D PREFETCH  ACCESS:    8371334  HIT:    7989180  MISS:     382154
L1D WRITEBACK ACCESS:          0  HIT:          0  MISS:          0
L1D PREFETCH  REQUESTED:    8861856  ISSUED:    8552449  USEFUL:     129207  USELESS:     252921
L1D AVERAGE MISS LATENCY: 48.5554 cycles
L1I TOTAL     ACCESS:   16908898  HIT:   15907728  MISS:    1001170
L1I LOAD      ACCESS:    8963121  HIT:    8956803  MISS:       6318
L1I RFO       ACCESS:          0  HIT:          0  MISS:          0
L1I PREFETCH  ACCESS:    7945777  HIT:    6950925  MISS:     994852
L1I WRITEBACK ACCESS:          0  HIT:          0  MISS:          0
L1I PREFETCH  REQUESTED:    7951815  ISSUED:    7951166  USEFUL:     465576  USELESS:     529214
L1I AVERAGE MISS LATENCY: 17.7304 cycles
L2C TOTAL     ACCESS:    2753948  HIT:    2443891  MISS:     310057
L2C LOAD      ACCESS:     377863  HIT:     265181  MISS:     112682
L2C RFO       ACCESS:      58326  HIT:      21135  MISS:      37191
L2C PREFETCH  ACCESS:    2128196  HIT:    1968590  MISS:     159606
L2C WRITEBACK ACCESS:     189563  HIT:     188985  MISS:        578
L2C PREFETCH  REQUESTED:    1873631  ISSUED:    1870250  USEFUL:      13567  USELESS:     144619
L2C AVERAGE MISS LATENCY: 108.276 cycles
LLC TOTAL     ACCESS:     848744  HIT:     645495  MISS:     203249
LLC LOAD      ACCESS:     112368  HIT:      69929  MISS:      42439
LLC RFO       ACCESS:      37189  HIT:       8838  MISS:      28351
LLC PREFETCH  ACCESS:     591180  HIT:     459471  MISS:     131709
LLC WRITEBACK ACCESS:     108007  HIT:     107257  MISS:        750
LLC PREFETCH  REQUESTED:          0  ISSUED:          0  USEFUL:      27471  USELESS:     105805
LLC AVERAGE MISS LATENCY: 193.573 cycles
Major fault: 0 Minor fault: 3448
CPU 0 L1D next line prefetcher final stats

DRAM Statistics
 CHANNEL 0
 RQ ROW_BUFFER_HIT:      47223  ROW_BUFFER_MISS:     155271
 DBUS_CONGESTED:     116861
 WQ ROW_BUFFER_HIT:      15777  ROW_BUFFER_MISS:      65608  FULL:          0

 AVG_CONGESTED_CYCLE: 5

CPU 0 Branch Prediction Accuracy: 97.9037% MPKI: 3.63418 Average ROB Occupancy at Mispredict: 87.3646

Branch types
NOT_BRANCH: 41331383 82.6628%
BRANCH_DIRECT_JUMP: 455615 0.91123%
BRANCH_INDIRECT: 20390 0.04078%
BRANCH_CONDITIONAL: 6745374 13.4907%
BRANCH_DIRECT_CALL: 494532 0.989064%
BRANCH_INDIRECT_CALL: 228815 0.45763%
BRANCH_RETURN: 723560 1.44712%
BRANCH_OTHER: 0 0%

