Initialize SIGNATURE TABLE
ST_SET: 1
ST_WAY: 256
ST_TAG_BIT: 16
ST_TAG_MASK: ffff

Initialize PATTERN TABLE
PT_SET: 512
PT_WAY: 4
SIG_DELTA_BIT: 7
C_SIG_BIT: 4
C_DELTA_BIT: 4

Initialize PREFETCH FILTER
FILTER_SET: 1024

*** ChampSim Multicore Out-of-Order Simulator ***

Warmup Instructions: 50000000
Simulation Instructions: 50000000
Number of CPUs: 1
LLC sets: 2048
LLC ways: 16
Off-chip DRAM Size: 4096 MB Channels: 1 Width: 64-bit Data Rate: 3200 MT/s

CPU 0 runs /home/sankara2004/240C/hw1/ChampSim/ipc1_public/client_005.champsimtrace.xz
CPU 0 L1I next line prefetcher
CPU 0 L1D next line prefetcher
Heartbeat CPU 0 instructions: 10000001 cycles: 3291625 heartbeat IPC: 3.03801 cumulative IPC: 3.03801 (Simulation time: 0 hr 0 min 27 sec) 
Heartbeat CPU 0 instructions: 20000002 cycles: 6698043 heartbeat IPC: 2.93564 cumulative IPC: 2.98595 (Simulation time: 0 hr 0 min 55 sec) 
Heartbeat CPU 0 instructions: 30000001 cycles: 10391376 heartbeat IPC: 2.70758 cumulative IPC: 2.88701 (Simulation time: 0 hr 1 min 26 sec) 
Heartbeat CPU 0 instructions: 40000000 cycles: 14069200 heartbeat IPC: 2.719 cumulative IPC: 2.84309 (Simulation time: 0 hr 1 min 56 sec) 
Heartbeat CPU 0 instructions: 50000001 cycles: 17342732 heartbeat IPC: 3.0548 cumulative IPC: 2.88305 (Simulation time: 0 hr 2 min 24 sec) 

Warmup complete CPU 0 instructions: 50000001 cycles: 17342732 (Simulation time: 0 hr 2 min 24 sec) 

Heartbeat CPU 0 instructions: 60000002 cycles: 24977948 heartbeat IPC: 1.30972 cumulative IPC: 1.30972 (Simulation time: 0 hr 2 min 57 sec) 
Heartbeat CPU 0 instructions: 70000003 cycles: 32280249 heartbeat IPC: 1.36943 cumulative IPC: 1.33891 (Simulation time: 0 hr 3 min 30 sec) 
Heartbeat CPU 0 instructions: 80000001 cycles: 39174003 heartbeat IPC: 1.45059 cumulative IPC: 1.37418 (Simulation time: 0 hr 4 min 4 sec) 
Heartbeat CPU 0 instructions: 90000002 cycles: 48670025 heartbeat IPC: 1.05307 cumulative IPC: 1.27684 (Simulation time: 0 hr 4 min 43 sec) 
Heartbeat CPU 0 instructions: 100000002 cycles: 56218916 heartbeat IPC: 1.3247 cumulative IPC: 1.28613 (Simulation time: 0 hr 5 min 15 sec) 
Finished CPU 0 instructions: 50000001 cycles: 38876184 cumulative IPC: 1.28613 (Simulation time: 0 hr 5 min 15 sec) 

ChampSim completed all CPUs

Region of Interest Statistics

CPU 0 cumulative IPC: 1.28613 instructions: 50000001 cycles: 38876184
L1D TOTAL     ACCESS:   19679875  HIT:   19143978  MISS:     535897
L1D LOAD      ACCESS:    6666932  HIT:    6495349  MISS:     171583
L1D RFO       ACCESS:    6797789  HIT:    6613439  MISS:     184350
L1D PREFETCH  ACCESS:    6215154  HIT:    6035190  MISS:     179964
L1D WRITEBACK ACCESS:          0  HIT:          0  MISS:          0
L1D PREFETCH  REQUESTED:    6690240  ISSUED:    6319448  USEFUL:      59662  USELESS:     120191
L1D AVERAGE MISS LATENCY: 92.4545 cycles
L1I TOTAL     ACCESS:   12340450  HIT:   11185119  MISS:    1155331
L1I LOAD      ACCESS:    9312416  HIT:    9104819  MISS:     207597
L1I RFO       ACCESS:          0  HIT:          0  MISS:          0
L1I PREFETCH  ACCESS:    3028034  HIT:    2080300  MISS:     947734
L1I WRITEBACK ACCESS:          0  HIT:          0  MISS:          0
L1I PREFETCH  REQUESTED:    3156747  ISSUED:    3156717  USEFUL:     602488  USELESS:     345200
L1I AVERAGE MISS LATENCY: 20.2147 cycles
L2C TOTAL     ACCESS:    2464867  HIT:    2075238  MISS:     389629
L2C LOAD      ACCESS:     336036  HIT:     248142  MISS:      87894
L2C RFO       ACCESS:     180772  HIT:      32252  MISS:     148520
L2C PREFETCH  ACCESS:    1695010  HIT:    1543155  MISS:     151855
L2C WRITEBACK ACCESS:     253049  HIT:     251689  MISS:       1360
L2C PREFETCH  REQUESTED:    1852740  ISSUED:    1851783  USEFUL:      15219  USELESS:     134749
L2C AVERAGE MISS LATENCY: 127.692 cycles
LLC TOTAL     ACCESS:     979568  HIT:     678024  MISS:     301544
LLC LOAD      ACCESS:      87872  HIT:      45991  MISS:      41881
LLC RFO       ACCESS:     148512  HIT:      18747  MISS:     129765
LLC PREFETCH  ACCESS:     544526  HIT:     415599  MISS:     128927
LLC WRITEBACK ACCESS:     198658  HIT:     197687  MISS:        971
LLC PREFETCH  REQUESTED:          0  ISSUED:          0  USEFUL:      27664  USELESS:      96810
LLC AVERAGE MISS LATENCY: 170.039 cycles
Major fault: 0 Minor fault: 6084
Prefetcher storage:
 Miss Ahead Prediction Table 73728 bytes
 I-Shadow cache 408 bytes
Touched + WorthPF tables 24576 bytes 
MMA filter 123 bytes 
FNL filter 272 bytes 
TOTAL PREFETCHER STORAGE SIZE: 99107 bytes
CPU 0 L1I next line prefetcher final stats
CPU 0 L1D next line prefetcher final stats

DRAM Statistics
 CHANNEL 0
 RQ ROW_BUFFER_HIT:      98320  ROW_BUFFER_MISS:     202239
 DBUS_CONGESTED:     246008
 WQ ROW_BUFFER_HIT:      51571  ROW_BUFFER_MISS:     131616  FULL:          0

 AVG_CONGESTED_CYCLE: 6

CPU 0 Branch Prediction Accuracy: 97.8666% MPKI: 3.9013 Average ROB Occupancy at Mispredict: 86.8395

Branch types
NOT_BRANCH: 40856330 81.7127%
BRANCH_DIRECT_JUMP: 484667 0.969334%
BRANCH_INDIRECT: 85086 0.170172%
BRANCH_CONDITIONAL: 6230887 12.4618%
BRANCH_DIRECT_CALL: 1028917 2.05783%
BRANCH_INDIRECT_CALL: 141825 0.28365%
BRANCH_RETURN: 1171986 2.34397%
BRANCH_OTHER: 0 0%

