Initialize SIGNATURE TABLE
ST_SET: 1
ST_WAY: 256
ST_TAG_BIT: 16
ST_TAG_MASK: ffff

Initialize PATTERN TABLE
PT_SET: 512
PT_WAY: 4
SIG_DELTA_BIT: 7
C_SIG_BIT: 4
C_DELTA_BIT: 4

Initialize PREFETCH FILTER
FILTER_SET: 1024

*** ChampSim Multicore Out-of-Order Simulator ***

Warmup Instructions: 50000000
Simulation Instructions: 50000000
Number of CPUs: 1
LLC sets: 2048
LLC ways: 16
Off-chip DRAM Size: 4096 MB Channels: 1 Width: 64-bit Data Rate: 3200 MT/s

CPU 0 runs /home/sankara2004/240C/hw1/ChampSim/ipc1_public/server_037.champsimtrace.xz
CPU 0 L1I next line prefetcher
CPU 0 L1D next line prefetcher
Heartbeat CPU 0 instructions: 10000001 cycles: 3319256 heartbeat IPC: 3.01272 cumulative IPC: 3.01272 (Simulation time: 0 hr 0 min 31 sec) 
Heartbeat CPU 0 instructions: 20000002 cycles: 6635974 heartbeat IPC: 3.01503 cumulative IPC: 3.01388 (Simulation time: 0 hr 1 min 2 sec) 
Heartbeat CPU 0 instructions: 30000003 cycles: 10000489 heartbeat IPC: 2.9722 cumulative IPC: 2.99985 (Simulation time: 0 hr 1 min 33 sec) 
Heartbeat CPU 0 instructions: 40000000 cycles: 13319034 heartbeat IPC: 3.01337 cumulative IPC: 3.00322 (Simulation time: 0 hr 2 min 5 sec) 
Heartbeat CPU 0 instructions: 50000003 cycles: 16636845 heartbeat IPC: 3.01404 cumulative IPC: 3.00538 (Simulation time: 0 hr 2 min 36 sec) 

Warmup complete CPU 0 instructions: 50000003 cycles: 16636845 (Simulation time: 0 hr 2 min 36 sec) 

Heartbeat CPU 0 instructions: 60000001 cycles: 23027200 heartbeat IPC: 1.56486 cumulative IPC: 1.56486 (Simulation time: 0 hr 3 min 14 sec) 
Heartbeat CPU 0 instructions: 70000000 cycles: 29516949 heartbeat IPC: 1.54089 cumulative IPC: 1.55278 (Simulation time: 0 hr 3 min 53 sec) 
Heartbeat CPU 0 instructions: 80000000 cycles: 35893014 heartbeat IPC: 1.56837 cumulative IPC: 1.55794 (Simulation time: 0 hr 4 min 32 sec) 
Heartbeat CPU 0 instructions: 90000002 cycles: 42288729 heartbeat IPC: 1.56355 cumulative IPC: 1.55934 (Simulation time: 0 hr 5 min 10 sec) 
*** Reached end of trace for Core: 0 Repeating trace: /home/sankara2004/240C/hw1/ChampSim/ipc1_public/server_037.champsimtrace.xz
Heartbeat CPU 0 instructions: 100000000 cycles: 48693027 heartbeat IPC: 1.56145 cumulative IPC: 1.55976 (Simulation time: 0 hr 5 min 49 sec) 
Finished CPU 0 instructions: 50000001 cycles: 32056183 cumulative IPC: 1.55976 (Simulation time: 0 hr 5 min 49 sec) 

ChampSim completed all CPUs

Region of Interest Statistics

CPU 0 cumulative IPC: 1.55976 instructions: 50000001 cycles: 32056183
L1D TOTAL     ACCESS:   18690741  HIT:   17712782  MISS:     977959
L1D LOAD      ACCESS:    6360620  HIT:    5869323  MISS:     491297
L1D RFO       ACCESS:    6205619  HIT:    6141613  MISS:      64006
L1D PREFETCH  ACCESS:    6124502  HIT:    5701846  MISS:     422656
L1D WRITEBACK ACCESS:          0  HIT:          0  MISS:          0
L1D PREFETCH  REQUESTED:    6397088  ISSUED:    6244182  USEFUL:     117524  USELESS:     305136
L1D AVERAGE MISS LATENCY: 28.8488 cycles
L1I TOTAL     ACCESS:   16151979  HIT:   11338409  MISS:    4813570
L1I LOAD      ACCESS:    9402908  HIT:    9317232  MISS:      85676
L1I RFO       ACCESS:          0  HIT:          0  MISS:          0
L1I PREFETCH  ACCESS:    6749071  HIT:    2021177  MISS:    4727894
L1I WRITEBACK ACCESS:          0  HIT:          0  MISS:          0
L1I PREFETCH  REQUESTED:    7027123  ISSUED:    7027123  USEFUL:    4038891  USELESS:     689023
L1I AVERAGE MISS LATENCY: 14.8902 cycles
L2C TOTAL     ACCESS:    8317611  HIT:    8011497  MISS:     306114
L2C LOAD      ACCESS:     542674  HIT:     404270  MISS:     138404
L2C RFO       ACCESS:      63719  HIT:      36686  MISS:      27033
L2C PREFETCH  ACCESS:    7421717  HIT:    7282014  MISS:     139703
L2C WRITEBACK ACCESS:     289501  HIT:     288527  MISS:        974
L2C PREFETCH  REQUESTED:    8112735  ISSUED:    8088410  USEFUL:       6610  USELESS:     132938
L2C AVERAGE MISS LATENCY: 45.6677 cycles
LLC TOTAL     ACCESS:    1998318  HIT:    1939412  MISS:      58906
LLC LOAD      ACCESS:     138384  HIT:     125577  MISS:      12807
LLC RFO       ACCESS:      27033  HIT:      22475  MISS:       4558
LLC PREFETCH  ACCESS:    1695843  HIT:    1654938  MISS:      40905
LLC WRITEBACK ACCESS:     137058  HIT:     136422  MISS:        636
LLC PREFETCH  REQUESTED:          0  ISSUED:          0  USEFUL:       4522  USELESS:      35961
LLC AVERAGE MISS LATENCY: 167.421 cycles
Major fault: 0 Minor fault: 5653
Prefetcher storage:
 Miss Ahead Prediction Table 73728 bytes
 I-Shadow cache 408 bytes
Touched + WorthPF tables 24576 bytes 
MMA filter 123 bytes 
FNL filter 272 bytes 
TOTAL PREFETCHER STORAGE SIZE: 99107 bytes
CPU 0 L1I next line prefetcher final stats
CPU 0 L1D next line prefetcher final stats

DRAM Statistics
 CHANNEL 0
 RQ ROW_BUFFER_HIT:      11068  ROW_BUFFER_MISS:      47200
 DBUS_CONGESTED:      26202
 WQ ROW_BUFFER_HIT:       1462  ROW_BUFFER_MISS:      10862  FULL:          0

 AVG_CONGESTED_CYCLE: 5

CPU 0 Branch Prediction Accuracy: 99.913% MPKI: 0.15656 Average ROB Occupancy at Mispredict: 221.337

Branch types
NOT_BRANCH: 41001727 82.0035%
BRANCH_DIRECT_JUMP: 541941 1.08388%
BRANCH_INDIRECT: 59716 0.119432%
BRANCH_CONDITIONAL: 5916854 11.8337%
BRANCH_DIRECT_CALL: 1005465 2.01093%
BRANCH_INDIRECT_CALL: 234433 0.468866%
BRANCH_RETURN: 1239878 2.47976%
BRANCH_OTHER: 0 0%

