Initialize SIGNATURE TABLE
ST_SET: 1
ST_WAY: 256
ST_TAG_BIT: 16
ST_TAG_MASK: ffff

Initialize PATTERN TABLE
PT_SET: 512
PT_WAY: 4
SIG_DELTA_BIT: 7
C_SIG_BIT: 4
C_DELTA_BIT: 4

Initialize PREFETCH FILTER
FILTER_SET: 1024

*** ChampSim Multicore Out-of-Order Simulator ***

Warmup Instructions: 50000000
Simulation Instructions: 50000000
Number of CPUs: 1
LLC sets: 2048
LLC ways: 16
Off-chip DRAM Size: 4096 MB Channels: 1 Width: 64-bit Data Rate: 3200 MT/s

CPU 0 runs /home/sankara2004/240C/hw1/ChampSim/ipc1_public/server_032.champsimtrace.xz
CPU 0 L1I next line prefetcher
CPU 0 L1D next line prefetcher
Heartbeat CPU 0 instructions: 10000002 cycles: 3521833 heartbeat IPC: 2.83943 cumulative IPC: 2.83943 (Simulation time: 0 hr 0 min 32 sec) 
Heartbeat CPU 0 instructions: 20000003 cycles: 7044081 heartbeat IPC: 2.8391 cumulative IPC: 2.83926 (Simulation time: 0 hr 1 min 4 sec) 
Heartbeat CPU 0 instructions: 30000000 cycles: 10565985 heartbeat IPC: 2.83937 cumulative IPC: 2.8393 (Simulation time: 0 hr 1 min 35 sec) 
Heartbeat CPU 0 instructions: 40000003 cycles: 14089193 heartbeat IPC: 2.83832 cumulative IPC: 2.83906 (Simulation time: 0 hr 2 min 7 sec) 
Heartbeat CPU 0 instructions: 50000000 cycles: 17611353 heartbeat IPC: 2.83917 cumulative IPC: 2.83908 (Simulation time: 0 hr 2 min 39 sec) 

Warmup complete CPU 0 instructions: 50000004 cycles: 17611354 (Simulation time: 0 hr 2 min 39 sec) 

Heartbeat CPU 0 instructions: 60000002 cycles: 24409489 heartbeat IPC: 1.47099 cumulative IPC: 1.47099 (Simulation time: 0 hr 3 min 17 sec) 
Heartbeat CPU 0 instructions: 70000000 cycles: 31202144 heartbeat IPC: 1.47218 cumulative IPC: 1.47158 (Simulation time: 0 hr 3 min 56 sec) 
*** Reached end of trace for Core: 0 Repeating trace: /home/sankara2004/240C/hw1/ChampSim/ipc1_public/server_032.champsimtrace.xz
Heartbeat CPU 0 instructions: 80000003 cycles: 37990676 heartbeat IPC: 1.47307 cumulative IPC: 1.47208 (Simulation time: 0 hr 4 min 34 sec) 
Heartbeat CPU 0 instructions: 90000002 cycles: 44752121 heartbeat IPC: 1.47897 cumulative IPC: 1.4738 (Simulation time: 0 hr 5 min 12 sec) 
Heartbeat CPU 0 instructions: 100000001 cycles: 51537358 heartbeat IPC: 1.47379 cumulative IPC: 1.4738 (Simulation time: 0 hr 5 min 49 sec) 
Finished CPU 0 instructions: 50000002 cycles: 33926006 cumulative IPC: 1.4738 (Simulation time: 0 hr 5 min 49 sec) 

ChampSim completed all CPUs

Region of Interest Statistics

CPU 0 cumulative IPC: 1.4738 instructions: 50000002 cycles: 33926006
L1D TOTAL     ACCESS:   19858373  HIT:   18030026  MISS:    1828347
L1D LOAD      ACCESS:    6794590  HIT:    6000093  MISS:     794497
L1D RFO       ACCESS:    6550120  HIT:    6256176  MISS:     293944
L1D PREFETCH  ACCESS:    6513663  HIT:    5773757  MISS:     739906
L1D WRITEBACK ACCESS:          0  HIT:          0  MISS:          0
L1D PREFETCH  REQUESTED:    6845612  ISSUED:    6709598  USEFUL:     169953  USELESS:     569952
L1D AVERAGE MISS LATENCY: 19.4107 cycles
L1I TOTAL     ACCESS:   14802404  HIT:   10879469  MISS:    3922935
L1I LOAD      ACCESS:    9550225  HIT:    9254237  MISS:     295988
L1I RFO       ACCESS:          0  HIT:          0  MISS:          0
L1I PREFETCH  ACCESS:    5252179  HIT:    1625232  MISS:    3626947
L1I WRITEBACK ACCESS:          0  HIT:          0  MISS:          0
L1I PREFETCH  REQUESTED:    5608544  ISSUED:    5608467  USEFUL:    2943500  USELESS:     683448
L1I AVERAGE MISS LATENCY: 17.1199 cycles
L2C TOTAL     ACCESS:    7943606  HIT:    7285040  MISS:     658566
L2C LOAD      ACCESS:     950916  HIT:     837094  MISS:     113822
L2C RFO       ACCESS:     292349  HIT:     237721  MISS:      54628
L2C PREFETCH  ACCESS:    6063930  HIT:    5586603  MISS:     477327
L2C WRITEBACK ACCESS:     636411  HIT:     623622  MISS:      12789
L2C PREFETCH  REQUESTED:    7743421  ISSUED:    7707526  USEFUL:       7440  USELESS:     469777
L2C AVERAGE MISS LATENCY: 33.2074 cycles
LLC TOTAL     ACCESS:    3064028  HIT:    3056610  MISS:       7418
LLC LOAD      ACCESS:     113816  HIT:     113336  MISS:        480
LLC RFO       ACCESS:      54625  HIT:      54624  MISS:          1
LLC PREFETCH  ACCESS:    2791798  HIT:    2784884  MISS:       6914
LLC WRITEBACK ACCESS:     103789  HIT:     103766  MISS:         23
LLC PREFETCH  REQUESTED:          0  ISSUED:          0  USEFUL:        375  USELESS:       2574
LLC AVERAGE MISS LATENCY: 150.109 cycles
Major fault: 0 Minor fault: 1179
Prefetcher storage:
 Miss Ahead Prediction Table 73728 bytes
 I-Shadow cache 408 bytes
Touched + WorthPF tables 24576 bytes 
MMA filter 123 bytes 
FNL filter 272 bytes 
TOTAL PREFETCHER STORAGE SIZE: 99107 bytes
CPU 0 L1I next line prefetcher final stats
CPU 0 L1D next line prefetcher final stats

DRAM Statistics
 CHANNEL 0
 RQ ROW_BUFFER_HIT:       1926  ROW_BUFFER_MISS:       5469
 DBUS_CONGESTED:        933
 WQ ROW_BUFFER_HIT:          1  ROW_BUFFER_MISS:         10  FULL:          0

 AVG_CONGESTED_CYCLE: 4

CPU 0 Branch Prediction Accuracy: 99.8762% MPKI: 0.2296 Average ROB Occupancy at Mispredict: 182.547

Branch types
NOT_BRANCH: 40726037 81.4521%
BRANCH_DIRECT_JUMP: 508373 1.01675%
BRANCH_INDIRECT: 180051 0.360102%
BRANCH_CONDITIONAL: 5999639 11.9993%
BRANCH_DIRECT_CALL: 1086735 2.17347%
BRANCH_INDIRECT_CALL: 206109 0.412218%
BRANCH_RETURN: 1292833 2.58567%
BRANCH_OTHER: 0 0%

