Initialize SIGNATURE TABLE
ST_SET: 1
ST_WAY: 256
ST_TAG_BIT: 16
ST_TAG_MASK: ffff

Initialize PATTERN TABLE
PT_SET: 512
PT_WAY: 4
SIG_DELTA_BIT: 7
C_SIG_BIT: 4
C_DELTA_BIT: 4

Initialize PREFETCH FILTER
FILTER_SET: 1024

*** ChampSim Multicore Out-of-Order Simulator ***

Warmup Instructions: 50000000
Simulation Instructions: 50000000
Number of CPUs: 1
LLC sets: 2048
LLC ways: 16
Off-chip DRAM Size: 4096 MB Channels: 1 Width: 64-bit Data Rate: 3200 MT/s

CPU 0 runs /home/sankara2004/240C/hw1/ChampSim/ipc1_public/server_019.champsimtrace.xz
CPU 0 L1I next line prefetcher
CPU 0 L1D next line prefetcher
Heartbeat CPU 0 instructions: 10000002 cycles: 3622709 heartbeat IPC: 2.76037 cumulative IPC: 2.76037 (Simulation time: 0 hr 0 min 32 sec) 
Heartbeat CPU 0 instructions: 20000003 cycles: 7247136 heartbeat IPC: 2.75906 cumulative IPC: 2.75971 (Simulation time: 0 hr 1 min 4 sec) 
Heartbeat CPU 0 instructions: 30000002 cycles: 10870406 heartbeat IPC: 2.75994 cumulative IPC: 2.75979 (Simulation time: 0 hr 1 min 36 sec) 
Heartbeat CPU 0 instructions: 40000002 cycles: 14505646 heartbeat IPC: 2.75085 cumulative IPC: 2.75755 (Simulation time: 0 hr 2 min 8 sec) 
Heartbeat CPU 0 instructions: 50000001 cycles: 18129689 heartbeat IPC: 2.75935 cumulative IPC: 2.75791 (Simulation time: 0 hr 2 min 40 sec) 

Warmup complete CPU 0 instructions: 50000001 cycles: 18129689 (Simulation time: 0 hr 2 min 40 sec) 

Heartbeat CPU 0 instructions: 60000000 cycles: 37763975 heartbeat IPC: 0.509313 cumulative IPC: 0.509313 (Simulation time: 0 hr 3 min 46 sec) 
Heartbeat CPU 0 instructions: 70000002 cycles: 61268761 heartbeat IPC: 0.425445 cumulative IPC: 0.463617 (Simulation time: 0 hr 4 min 55 sec) 
Heartbeat CPU 0 instructions: 80000001 cycles: 81616649 heartbeat IPC: 0.491451 cumulative IPC: 0.472538 (Simulation time: 0 hr 6 min 0 sec) 
Heartbeat CPU 0 instructions: 90000002 cycles: 98965493 heartbeat IPC: 0.576407 cumulative IPC: 0.49483 (Simulation time: 0 hr 7 min 1 sec) 
Heartbeat CPU 0 instructions: 100000002 cycles: 116265028 heartbeat IPC: 0.57805 cumulative IPC: 0.5095 (Simulation time: 0 hr 8 min 3 sec) 
Finished CPU 0 instructions: 50000001 cycles: 98135339 cumulative IPC: 0.5095 (Simulation time: 0 hr 8 min 3 sec) 

ChampSim completed all CPUs

Region of Interest Statistics

CPU 0 cumulative IPC: 0.5095 instructions: 50000001 cycles: 98135339
L1D TOTAL     ACCESS:   18305767  HIT:   16082154  MISS:    2223613
L1D LOAD      ACCESS:    6980820  HIT:    6229173  MISS:     751647
L1D RFO       ACCESS:    5508628  HIT:    4606655  MISS:     901973
L1D PREFETCH  ACCESS:    5816319  HIT:    5246326  MISS:     569993
L1D WRITEBACK ACCESS:          0  HIT:          0  MISS:          0
L1D PREFETCH  REQUESTED:    7018186  ISSUED:    6831411  USEFUL:     200785  USELESS:     369117
L1D AVERAGE MISS LATENCY: 186.011 cycles
L1I TOTAL     ACCESS:   14233591  HIT:   11495044  MISS:    2738547
L1I LOAD      ACCESS:    9838082  HIT:    9772851  MISS:      65231
L1I RFO       ACCESS:          0  HIT:          0  MISS:          0
L1I PREFETCH  ACCESS:    4395509  HIT:    1722193  MISS:    2673316
L1I WRITEBACK ACCESS:          0  HIT:          0  MISS:          0
L1I PREFETCH  REQUESTED:    4630812  ISSUED:    4630811  USEFUL:    2272920  USELESS:     400395
L1I AVERAGE MISS LATENCY: 18.1399 cycles
L2C TOTAL     ACCESS:    7176810  HIT:    5286608  MISS:    1890202
L2C LOAD      ACCESS:     594959  HIT:     260379  MISS:     334580
L2C RFO       ACCESS:     901525  HIT:      18125  MISS:     883400
L2C PREFETCH  ACCESS:    4505664  HIT:    3835798  MISS:     669866
L2C WRITEBACK ACCESS:    1174662  HIT:    1172306  MISS:       2356
L2C PREFETCH  REQUESTED:    4869796  ISSUED:    4863495  USEFUL:      23759  USELESS:     644757
L2C AVERAGE MISS LATENCY: 221.678 cycles
LLC TOTAL     ACCESS:    4366205  HIT:    2711720  MISS:    1654485
LLC LOAD      ACCESS:     334502  HIT:     169787  MISS:     164715
LLC RFO       ACCESS:     883376  HIT:     114848  MISS:     768528
LLC PREFETCH  ACCESS:    2037075  HIT:    1318346  MISS:     718729
LLC WRITEBACK ACCESS:    1111252  HIT:    1108739  MISS:       2513
LLC PREFETCH  REQUESTED:          0  ISSUED:          0  USEFUL:      54126  USELESS:     663733
LLC AVERAGE MISS LATENCY: 274.296 cycles
Major fault: 0 Minor fault: 25693
Prefetcher storage:
 Miss Ahead Prediction Table 73728 bytes
 I-Shadow cache 408 bytes
Touched + WorthPF tables 24576 bytes 
MMA filter 123 bytes 
FNL filter 272 bytes 
TOTAL PREFETCHER STORAGE SIZE: 99107 bytes
CPU 0 L1I next line prefetcher final stats
CPU 0 L1D next line prefetcher final stats

DRAM Statistics
 CHANNEL 0
 RQ ROW_BUFFER_HIT:     400953  ROW_BUFFER_MISS:    1250662
 DBUS_CONGESTED:    1634008
 WQ ROW_BUFFER_HIT:     255928  ROW_BUFFER_MISS:     681007  FULL:          0

 AVG_CONGESTED_CYCLE: 6

CPU 0 Branch Prediction Accuracy: 99.2186% MPKI: 1.32192 Average ROB Occupancy at Mispredict: 178.778

Branch types
NOT_BRANCH: 41540926 83.0819%
BRANCH_DIRECT_JUMP: 462384 0.924768%
BRANCH_INDIRECT: 45460 0.09092%
BRANCH_CONDITIONAL: 6209290 12.4186%
BRANCH_DIRECT_CALL: 666241 1.33248%
BRANCH_INDIRECT_CALL: 204728 0.409456%
BRANCH_RETURN: 870978 1.74196%
BRANCH_OTHER: 0 0%

