Initialize SIGNATURE TABLE
ST_SET: 1
ST_WAY: 256
ST_TAG_BIT: 16
ST_TAG_MASK: ffff

Initialize PATTERN TABLE
PT_SET: 512
PT_WAY: 4
SIG_DELTA_BIT: 7
C_SIG_BIT: 4
C_DELTA_BIT: 4

Initialize PREFETCH FILTER
FILTER_SET: 1024

*** ChampSim Multicore Out-of-Order Simulator ***

Warmup Instructions: 50000000
Simulation Instructions: 50000000
Number of CPUs: 1
LLC sets: 2048
LLC ways: 16
Off-chip DRAM Size: 4096 MB Channels: 1 Width: 64-bit Data Rate: 3200 MT/s

CPU 0 runs /home/sankara2004/240C/hw1/ChampSim/ipc1_public/server_026.champsimtrace.xz
CPU 0 L1D next line prefetcher
Heartbeat CPU 0 instructions: 10000000 cycles: 3537642 heartbeat IPC: 2.82674 cumulative IPC: 2.82674 (Simulation time: 0 hr 1 min 12 sec) 
Heartbeat CPU 0 instructions: 20000002 cycles: 7079289 heartbeat IPC: 2.82355 cumulative IPC: 2.82514 (Simulation time: 0 hr 2 min 23 sec) 
Heartbeat CPU 0 instructions: 30000000 cycles: 10610913 heartbeat IPC: 2.83156 cumulative IPC: 2.82728 (Simulation time: 0 hr 3 min 35 sec) 
Heartbeat CPU 0 instructions: 40000003 cycles: 14151100 heartbeat IPC: 2.82471 cumulative IPC: 2.82664 (Simulation time: 0 hr 4 min 47 sec) 
Heartbeat CPU 0 instructions: 50000000 cycles: 17684215 heartbeat IPC: 2.83036 cumulative IPC: 2.82738 (Simulation time: 0 hr 6 min 0 sec) 

Warmup complete CPU 0 instructions: 50000004 cycles: 17684216 (Simulation time: 0 hr 6 min 0 sec) 

*** Reached end of trace for Core: 0 Repeating trace: /home/sankara2004/240C/hw1/ChampSim/ipc1_public/server_026.champsimtrace.xz
Heartbeat CPU 0 instructions: 60000000 cycles: 24686799 heartbeat IPC: 1.42804 cumulative IPC: 1.42804 (Simulation time: 0 hr 7 min 28 sec) 
Heartbeat CPU 0 instructions: 70000003 cycles: 31584263 heartbeat IPC: 1.44981 cumulative IPC: 1.43884 (Simulation time: 0 hr 8 min 56 sec) 
Heartbeat CPU 0 instructions: 80000002 cycles: 38585707 heartbeat IPC: 1.42828 cumulative IPC: 1.4353 (Simulation time: 0 hr 10 min 22 sec) 
Heartbeat CPU 0 instructions: 90000002 cycles: 45486395 heartbeat IPC: 1.44913 cumulative IPC: 1.43874 (Simulation time: 0 hr 11 min 49 sec) 
Heartbeat CPU 0 instructions: 100000000 cycles: 52450429 heartbeat IPC: 1.43595 cumulative IPC: 1.43818 (Simulation time: 0 hr 13 min 16 sec) 
Finished CPU 0 instructions: 50000000 cycles: 34766214 cumulative IPC: 1.43818 (Simulation time: 0 hr 13 min 16 sec) 

ChampSim completed all CPUs

Region of Interest Statistics

CPU 0 cumulative IPC: 1.43818 instructions: 50000000 cycles: 34766214
L1D TOTAL     ACCESS:   19815191  HIT:   18170230  MISS:    1644961
L1D LOAD      ACCESS:    6956265  HIT:    6224837  MISS:     731428
L1D RFO       ACCESS:    6243199  HIT:    5956744  MISS:     286455
L1D PREFETCH  ACCESS:    6615727  HIT:    5988649  MISS:     627078
L1D WRITEBACK ACCESS:          0  HIT:          0  MISS:          0
L1D PREFETCH  REQUESTED:    7004456  ISSUED:    6861990  USEFUL:     149629  USELESS:     477459
L1D AVERAGE MISS LATENCY: 25.2349 cycles
L1I TOTAL     ACCESS:   24254596  HIT:   18185025  MISS:    6069571
L1I LOAD      ACCESS:    9580586  HIT:    9457426  MISS:     123160
L1I RFO       ACCESS:          0  HIT:          0  MISS:          0
L1I PREFETCH  ACCESS:   14674010  HIT:    8727599  MISS:    5946411
L1I WRITEBACK ACCESS:          0  HIT:          0  MISS:          0
L1I PREFETCH  REQUESTED:   14800694  ISSUED:   14772501  USEFUL:    2877523  USELESS:    3068941
L1I AVERAGE MISS LATENCY: 16.7964 cycles
L2C TOTAL     ACCESS:   10492787  HIT:    9551607  MISS:     941180
L2C LOAD      ACCESS:     742495  HIT:     567093  MISS:     175402
L2C RFO       ACCESS:     284762  HIT:     172109  MISS:     112653
L2C PREFETCH  ACCESS:    8904371  HIT:    8261992  MISS:     642379
L2C WRITEBACK ACCESS:     561159  HIT:     550413  MISS:      10746
L2C PREFETCH  REQUESTED:    5494520  ISSUED:    5484909  USEFUL:      20151  USELESS:     621319
L2C AVERAGE MISS LATENCY: 36.2605 cycles
LLC TOTAL     ACCESS:    2548889  HIT:    2516082  MISS:      32807
LLC LOAD      ACCESS:     175089  HIT:     171754  MISS:       3335
LLC RFO       ACCESS:     112644  HIT:      98268  MISS:      14376
LLC PREFETCH  ACCESS:    2066997  HIT:    2052040  MISS:      14957
LLC WRITEBACK ACCESS:     194159  HIT:     194020  MISS:        139
LLC PREFETCH  REQUESTED:          0  ISSUED:          0  USEFUL:        857  USELESS:      14137
LLC AVERAGE MISS LATENCY: 192.464 cycles
Major fault: 0 Minor fault: 2185
CPU 0 L1D next line prefetcher final stats

DRAM Statistics
 CHANNEL 0
 RQ ROW_BUFFER_HIT:      11442  ROW_BUFFER_MISS:      21224
 DBUS_CONGESTED:      22399
 WQ ROW_BUFFER_HIT:       1501  ROW_BUFFER_MISS:      14123  FULL:          0

 AVG_CONGESTED_CYCLE: 6

CPU 0 Branch Prediction Accuracy: 99.822% MPKI: 0.32584 Average ROB Occupancy at Mispredict: 198.445

Branch types
NOT_BRANCH: 40848573 81.6971%
BRANCH_DIRECT_JUMP: 522045 1.04409%
BRANCH_INDIRECT: 204034 0.408068%
BRANCH_CONDITIONAL: 6212963 12.4259%
BRANCH_DIRECT_CALL: 932393 1.86479%
BRANCH_INDIRECT_CALL: 173764 0.347528%
BRANCH_RETURN: 1106152 2.2123%
BRANCH_OTHER: 0 0%

