Initialize SIGNATURE TABLE
ST_SET: 1
ST_WAY: 256
ST_TAG_BIT: 16
ST_TAG_MASK: ffff

Initialize PATTERN TABLE
PT_SET: 512
PT_WAY: 4
SIG_DELTA_BIT: 7
C_SIG_BIT: 4
C_DELTA_BIT: 4

Initialize PREFETCH FILTER
FILTER_SET: 1024

*** ChampSim Multicore Out-of-Order Simulator ***

Warmup Instructions: 50000000
Simulation Instructions: 50000000
Number of CPUs: 1
LLC sets: 2048
LLC ways: 16
Off-chip DRAM Size: 4096 MB Channels: 1 Width: 64-bit Data Rate: 3200 MT/s

CPU 0 runs /home/sankara2004/240C/hw1/ChampSim/ipc1_public/server_017.champsimtrace.xz
CPU 0 L1I next line prefetcher
CPU 0 L1D next line prefetcher
Heartbeat CPU 0 instructions: 10000001 cycles: 3622283 heartbeat IPC: 2.76069 cumulative IPC: 2.76069 (Simulation time: 0 hr 0 min 32 sec) 
Heartbeat CPU 0 instructions: 20000000 cycles: 7242466 heartbeat IPC: 2.76229 cumulative IPC: 2.76149 (Simulation time: 0 hr 1 min 3 sec) 
Heartbeat CPU 0 instructions: 30000002 cycles: 10869365 heartbeat IPC: 2.75718 cumulative IPC: 2.76005 (Simulation time: 0 hr 1 min 35 sec) 
Heartbeat CPU 0 instructions: 40000000 cycles: 14491813 heartbeat IPC: 2.76056 cumulative IPC: 2.76018 (Simulation time: 0 hr 2 min 7 sec) 
Heartbeat CPU 0 instructions: 50000001 cycles: 18125310 heartbeat IPC: 2.75217 cumulative IPC: 2.75857 (Simulation time: 0 hr 2 min 39 sec) 

Warmup complete CPU 0 instructions: 50000001 cycles: 18125310 (Simulation time: 0 hr 2 min 39 sec) 

Heartbeat CPU 0 instructions: 60000002 cycles: 35492115 heartbeat IPC: 0.575811 cumulative IPC: 0.575811 (Simulation time: 0 hr 3 min 40 sec) 
Heartbeat CPU 0 instructions: 70000002 cycles: 52925138 heartbeat IPC: 0.573624 cumulative IPC: 0.574715 (Simulation time: 0 hr 4 min 41 sec) 
Heartbeat CPU 0 instructions: 80000000 cycles: 70072865 heartbeat IPC: 0.583168 cumulative IPC: 0.577506 (Simulation time: 0 hr 5 min 42 sec) 
Heartbeat CPU 0 instructions: 90000002 cycles: 93089567 heartbeat IPC: 0.434467 cumulative IPC: 0.533588 (Simulation time: 0 hr 6 min 50 sec) 
Heartbeat CPU 0 instructions: 100000003 cycles: 112789488 heartbeat IPC: 0.507616 cumulative IPC: 0.528183 (Simulation time: 0 hr 7 min 56 sec) 
Finished CPU 0 instructions: 50000002 cycles: 94664178 cumulative IPC: 0.528183 (Simulation time: 0 hr 7 min 56 sec) 

ChampSim completed all CPUs

Region of Interest Statistics

CPU 0 cumulative IPC: 0.528183 instructions: 50000002 cycles: 94664178
L1D TOTAL     ACCESS:   18378335  HIT:   16212814  MISS:    2165521
L1D LOAD      ACCESS:    7028642  HIT:    6286413  MISS:     742229
L1D RFO       ACCESS:    5508769  HIT:    4649615  MISS:     859154
L1D PREFETCH  ACCESS:    5840924  HIT:    5276786  MISS:     564138
L1D WRITEBACK ACCESS:          0  HIT:          0  MISS:          0
L1D PREFETCH  REQUESTED:    7065700  ISSUED:    6875602  USEFUL:     201783  USELESS:     362416
L1D AVERAGE MISS LATENCY: 175.307 cycles
L1I TOTAL     ACCESS:   14376001  HIT:   11562371  MISS:    2813630
L1I LOAD      ACCESS:    9878172  HIT:    9812417  MISS:      65755
L1I RFO       ACCESS:          0  HIT:          0  MISS:          0
L1I PREFETCH  ACCESS:    4497829  HIT:    1749954  MISS:    2747875
L1I WRITEBACK ACCESS:          0  HIT:          0  MISS:          0
L1I PREFETCH  REQUESTED:    4708364  ISSUED:    4708351  USEFUL:    2309932  USELESS:     437929
L1I AVERAGE MISS LATENCY: 17.6348 cycles
L2C TOTAL     ACCESS:    7220833  HIT:    5380282  MISS:    1840551
L2C LOAD      ACCESS:     583029  HIT:     253739  MISS:     329290
L2C RFO       ACCESS:     858687  HIT:      17413  MISS:     841274
L2C PREFETCH  ACCESS:    4656243  HIT:    3988527  MISS:     667716
L2C WRITEBACK ACCESS:    1122874  HIT:    1120603  MISS:       2271
L2C PREFETCH  REQUESTED:    5137145  ISSUED:    5128867  USEFUL:      23084  USELESS:     645294
L2C AVERAGE MISS LATENCY: 208.697 cycles
LLC TOTAL     ACCESS:    4254961  HIT:    2720864  MISS:    1534097
LLC LOAD      ACCESS:     329164  HIT:     172972  MISS:     156192
LLC RFO       ACCESS:     841236  HIT:     122961  MISS:     718275
LLC PREFETCH  ACCESS:    2022470  HIT:    1364833  MISS:     657637
LLC WRITEBACK ACCESS:    1062091  HIT:    1060098  MISS:       1993
LLC PREFETCH  REQUESTED:          0  ISSUED:          0  USEFUL:      50508  USELESS:     606556
LLC AVERAGE MISS LATENCY: 266.685 cycles
Major fault: 0 Minor fault: 24695
Prefetcher storage:
 Miss Ahead Prediction Table 73728 bytes
 I-Shadow cache 408 bytes
Touched + WorthPF tables 24576 bytes 
MMA filter 123 bytes 
FNL filter 272 bytes 
TOTAL PREFETCHER STORAGE SIZE: 99107 bytes
CPU 0 L1I next line prefetcher final stats
CPU 0 L1D next line prefetcher final stats

DRAM Statistics
 CHANNEL 0
 RQ ROW_BUFFER_HIT:     382356  ROW_BUFFER_MISS:    1149600
 DBUS_CONGESTED:    1485228
 WQ ROW_BUFFER_HIT:     241707  ROW_BUFFER_MISS:     636368  FULL:          0

 AVG_CONGESTED_CYCLE: 6

CPU 0 Branch Prediction Accuracy: 99.2833% MPKI: 1.20568 Average ROB Occupancy at Mispredict: 181.685

Branch types
NOT_BRANCH: 41588350 83.1767%
BRANCH_DIRECT_JUMP: 464501 0.929002%
BRANCH_INDIRECT: 45704 0.091408%
BRANCH_CONDITIONAL: 6147408 12.2948%
BRANCH_DIRECT_CALL: 675450 1.3509%
BRANCH_INDIRECT_CALL: 201532 0.403064%
BRANCH_RETURN: 876985 1.75397%
BRANCH_OTHER: 0 0%

