Initialize SIGNATURE TABLE
ST_SET: 1
ST_WAY: 256
ST_TAG_BIT: 16
ST_TAG_MASK: ffff

Initialize PATTERN TABLE
PT_SET: 512
PT_WAY: 4
SIG_DELTA_BIT: 7
C_SIG_BIT: 4
C_DELTA_BIT: 4

Initialize PREFETCH FILTER
FILTER_SET: 1024

*** ChampSim Multicore Out-of-Order Simulator ***

Warmup Instructions: 50000000
Simulation Instructions: 50000000
Number of CPUs: 1
LLC sets: 2048
LLC ways: 16
Off-chip DRAM Size: 4096 MB Channels: 1 Width: 64-bit Data Rate: 3200 MT/s

CPU 0 runs /home/sankara2004/240C/hw1/ChampSim/ipc1_public/server_026.champsimtrace.xz
CPU 0 L1I next line prefetcher
CPU 0 L1D next line prefetcher
Heartbeat CPU 0 instructions: 10000000 cycles: 3526994 heartbeat IPC: 2.83528 cumulative IPC: 2.83528 (Simulation time: 0 hr 0 min 32 sec) 
Heartbeat CPU 0 instructions: 20000002 cycles: 7059781 heartbeat IPC: 2.83063 cumulative IPC: 2.83295 (Simulation time: 0 hr 1 min 3 sec) 
Heartbeat CPU 0 instructions: 30000000 cycles: 10582807 heartbeat IPC: 2.83847 cumulative IPC: 2.83479 (Simulation time: 0 hr 1 min 34 sec) 
Heartbeat CPU 0 instructions: 40000003 cycles: 14114200 heartbeat IPC: 2.83174 cumulative IPC: 2.83403 (Simulation time: 0 hr 2 min 5 sec) 
Heartbeat CPU 0 instructions: 50000000 cycles: 17638344 heartbeat IPC: 2.83757 cumulative IPC: 2.83473 (Simulation time: 0 hr 2 min 37 sec) 

Warmup complete CPU 0 instructions: 50000004 cycles: 17638345 (Simulation time: 0 hr 2 min 37 sec) 

*** Reached end of trace for Core: 0 Repeating trace: /home/sankara2004/240C/hw1/ChampSim/ipc1_public/server_026.champsimtrace.xz
Heartbeat CPU 0 instructions: 60000000 cycles: 24722417 heartbeat IPC: 1.41162 cumulative IPC: 1.41162 (Simulation time: 0 hr 3 min 14 sec) 
Heartbeat CPU 0 instructions: 70000003 cycles: 31693339 heartbeat IPC: 1.43453 cumulative IPC: 1.42298 (Simulation time: 0 hr 3 min 52 sec) 
Heartbeat CPU 0 instructions: 80000002 cycles: 38763523 heartbeat IPC: 1.41439 cumulative IPC: 1.42011 (Simulation time: 0 hr 4 min 30 sec) 
Heartbeat CPU 0 instructions: 90000002 cycles: 45741118 heartbeat IPC: 1.43316 cumulative IPC: 1.42335 (Simulation time: 0 hr 5 min 8 sec) 
Heartbeat CPU 0 instructions: 100000000 cycles: 52791511 heartbeat IPC: 1.41836 cumulative IPC: 1.42235 (Simulation time: 0 hr 5 min 46 sec) 
Finished CPU 0 instructions: 50000000 cycles: 35153167 cumulative IPC: 1.42235 (Simulation time: 0 hr 5 min 46 sec) 

ChampSim completed all CPUs

Region of Interest Statistics

CPU 0 cumulative IPC: 1.42235 instructions: 50000000 cycles: 35153167
L1D TOTAL     ACCESS:   19896968  HIT:   18251748  MISS:    1645220
L1D LOAD      ACCESS:    6995308  HIT:    6265200  MISS:     730108
L1D RFO       ACCESS:    6244101  HIT:    5957175  MISS:     286926
L1D PREFETCH  ACCESS:    6657559  HIT:    6029373  MISS:     628186
L1D WRITEBACK ACCESS:          0  HIT:          0  MISS:          0
L1D PREFETCH  REQUESTED:    7042774  ISSUED:    6902266  USEFUL:     150362  USELESS:     477834
L1D AVERAGE MISS LATENCY: 24.6988 cycles
L1I TOTAL     ACCESS:   14499903  HIT:   10629538  MISS:    3870365
L1I LOAD      ACCESS:    9385787  HIT:    9050543  MISS:     335244
L1I RFO       ACCESS:          0  HIT:          0  MISS:          0
L1I PREFETCH  ACCESS:    5114116  HIT:    1578995  MISS:    3535121
L1I WRITEBACK ACCESS:          0  HIT:          0  MISS:          0
L1I PREFETCH  REQUESTED:    5482819  ISSUED:    5478496  USEFUL:    2522338  USELESS:    1012788
L1I AVERAGE MISS LATENCY: 18.5012 cycles
L2C TOTAL     ACCESS:    7411642  HIT:    6463585  MISS:     948057
L2C LOAD      ACCESS:     908305  HIT:     709607  MISS:     198698
L2C RFO       ACCESS:     284623  HIT:     190220  MISS:      94403
L2C PREFETCH  ACCESS:    5657550  HIT:    5007349  MISS:     650201
L2C WRITEBACK ACCESS:     561164  HIT:     556409  MISS:       4755
L2C PREFETCH  REQUESTED:    7269829  ISSUED:    7257565  USEFUL:      25092  USELESS:     624743
L2C AVERAGE MISS LATENCY: 38.5765 cycles
LLC TOTAL     ACCESS:    2828814  HIT:    2792399  MISS:      36415
LLC LOAD      ACCESS:     198409  HIT:     194697  MISS:       3712
LLC RFO       ACCESS:      94358  HIT:      79864  MISS:      14494
LLC PREFETCH  ACCESS:    2362328  HIT:    2344318  MISS:      18010
LLC WRITEBACK ACCESS:     173719  HIT:     173520  MISS:        199
LLC PREFETCH  REQUESTED:          0  ISSUED:          0  USEFUL:       1121  USELESS:      16651
LLC AVERAGE MISS LATENCY: 187.693 cycles
Major fault: 0 Minor fault: 2166
Prefetcher storage:
 Miss Ahead Prediction Table 73728 bytes
 I-Shadow cache 408 bytes
Touched + WorthPF tables 24576 bytes 
MMA filter 123 bytes 
FNL filter 272 bytes 
TOTAL PREFETCHER STORAGE SIZE: 99107 bytes
CPU 0 L1I next line prefetcher final stats
CPU 0 L1D next line prefetcher final stats

DRAM Statistics
 CHANNEL 0
 RQ ROW_BUFFER_HIT:      12696  ROW_BUFFER_MISS:      23504
 DBUS_CONGESTED:      24471
 WQ ROW_BUFFER_HIT:       1572  ROW_BUFFER_MISS:      14560  FULL:          0

 AVG_CONGESTED_CYCLE: 6

CPU 0 Branch Prediction Accuracy: 99.822% MPKI: 0.32584 Average ROB Occupancy at Mispredict: 186.985

Branch types
NOT_BRANCH: 40848558 81.6971%
BRANCH_DIRECT_JUMP: 522045 1.04409%
BRANCH_INDIRECT: 204034 0.408068%
BRANCH_CONDITIONAL: 6212961 12.4259%
BRANCH_DIRECT_CALL: 932391 1.86478%
BRANCH_INDIRECT_CALL: 173764 0.347528%
BRANCH_RETURN: 1106152 2.2123%
BRANCH_OTHER: 0 0%

