Initialize SIGNATURE TABLE
ST_SET: 1
ST_WAY: 256
ST_TAG_BIT: 16
ST_TAG_MASK: ffff

Initialize PATTERN TABLE
PT_SET: 512
PT_WAY: 4
SIG_DELTA_BIT: 7
C_SIG_BIT: 4
C_DELTA_BIT: 4

Initialize PREFETCH FILTER
FILTER_SET: 1024

*** ChampSim Multicore Out-of-Order Simulator ***

Warmup Instructions: 50000000
Simulation Instructions: 50000000
Number of CPUs: 1
LLC sets: 2048
LLC ways: 16
Off-chip DRAM Size: 4096 MB Channels: 1 Width: 64-bit Data Rate: 3200 MT/s

CPU 0 runs /home/sankara2004/240C/hw1/ChampSim/ipc1_public/server_012.champsimtrace.xz
CPU 0 L1I next line prefetcher
CPU 0 L1D next line prefetcher
Heartbeat CPU 0 instructions: 10000002 cycles: 3193043 heartbeat IPC: 3.13181 cumulative IPC: 3.13181 (Simulation time: 0 hr 0 min 28 sec) 
Heartbeat CPU 0 instructions: 20000002 cycles: 6389090 heartbeat IPC: 3.12887 cumulative IPC: 3.13034 (Simulation time: 0 hr 0 min 56 sec) 
Heartbeat CPU 0 instructions: 30000001 cycles: 9586444 heartbeat IPC: 3.12759 cumulative IPC: 3.12942 (Simulation time: 0 hr 1 min 24 sec) 
Heartbeat CPU 0 instructions: 40000000 cycles: 12789947 heartbeat IPC: 3.12158 cumulative IPC: 3.12746 (Simulation time: 0 hr 1 min 52 sec) 
Heartbeat CPU 0 instructions: 50000003 cycles: 15986203 heartbeat IPC: 3.12866 cumulative IPC: 3.1277 (Simulation time: 0 hr 2 min 20 sec) 

Warmup complete CPU 0 instructions: 50000003 cycles: 15986203 (Simulation time: 0 hr 2 min 20 sec) 

Heartbeat CPU 0 instructions: 60000002 cycles: 23126177 heartbeat IPC: 1.40057 cumulative IPC: 1.40057 (Simulation time: 0 hr 2 min 53 sec) 
Heartbeat CPU 0 instructions: 70000000 cycles: 30308716 heartbeat IPC: 1.39227 cumulative IPC: 1.3964 (Simulation time: 0 hr 3 min 26 sec) 
Heartbeat CPU 0 instructions: 80000003 cycles: 37489414 heartbeat IPC: 1.39262 cumulative IPC: 1.39514 (Simulation time: 0 hr 4 min 0 sec) 
Heartbeat CPU 0 instructions: 90000001 cycles: 44944887 heartbeat IPC: 1.3413 cumulative IPC: 1.38128 (Simulation time: 0 hr 4 min 34 sec) 
Heartbeat CPU 0 instructions: 100000002 cycles: 52252970 heartbeat IPC: 1.36835 cumulative IPC: 1.37867 (Simulation time: 0 hr 5 min 7 sec) 
Finished CPU 0 instructions: 50000001 cycles: 36266768 cumulative IPC: 1.37867 (Simulation time: 0 hr 5 min 7 sec) 

ChampSim completed all CPUs

Region of Interest Statistics

CPU 0 cumulative IPC: 1.37867 instructions: 50000001 cycles: 36266768
L1D TOTAL     ACCESS:   17341717  HIT:   16298685  MISS:    1043032
L1D LOAD      ACCESS:    6310911  HIT:    5822882  MISS:     488029
L1D RFO       ACCESS:    4962600  HIT:    4880751  MISS:      81849
L1D PREFETCH  ACCESS:    6068206  HIT:    5595052  MISS:     473154
L1D WRITEBACK ACCESS:          0  HIT:          0  MISS:          0
L1D PREFETCH  REQUESTED:    6345188  ISSUED:    6245949  USEFUL:     132482  USELESS:     340693
L1D AVERAGE MISS LATENCY: 40.5406 cycles
L1I TOTAL     ACCESS:   12108420  HIT:   10050079  MISS:    2058341
L1I LOAD      ACCESS:    8704451  HIT:    8503304  MISS:     201147
L1I RFO       ACCESS:          0  HIT:          0  MISS:          0
L1I PREFETCH  ACCESS:    3403969  HIT:    1546775  MISS:    1857194
L1I WRITEBACK ACCESS:          0  HIT:          0  MISS:          0
L1I PREFETCH  REQUESTED:    3629611  ISSUED:    3629034  USEFUL:    1258827  USELESS:     598364
L1I AVERAGE MISS LATENCY: 28.0251 cycles
L2C TOTAL     ACCESS:    3880452  HIT:    2581851  MISS:    1298601
L2C LOAD      ACCESS:     543053  HIT:     275124  MISS:     267929
L2C RFO       ACCESS:      80710  HIT:      31117  MISS:      49593
L2C PREFETCH  ACCESS:    2981163  HIT:    2001565  MISS:     979598
L2C WRITEBACK ACCESS:     275526  HIT:     274045  MISS:       1481
L2C PREFETCH  REQUESTED:    3273356  ISSUED:    3270817  USEFUL:      31236  USELESS:     948345
L2C AVERAGE MISS LATENCY: 46.2486 cycles
LLC TOTAL     ACCESS:    2357780  HIT:    2215876  MISS:     141904
LLC LOAD      ACCESS:     267840  HIT:     248328  MISS:      19512
LLC RFO       ACCESS:      49590  HIT:      39257  MISS:      10333
LLC PREFETCH  ACCESS:    1873415  HIT:    1761715  MISS:     111700
LLC WRITEBACK ACCESS:     166935  HIT:     166576  MISS:        359
LLC PREFETCH  REQUESTED:          0  ISSUED:          0  USEFUL:       9848  USELESS:     101851
LLC AVERAGE MISS LATENCY: 171.824 cycles
Major fault: 0 Minor fault: 5599
Prefetcher storage:
 Miss Ahead Prediction Table 73728 bytes
 I-Shadow cache 408 bytes
Touched + WorthPF tables 24576 bytes 
MMA filter 123 bytes 
FNL filter 272 bytes 
TOTAL PREFETCHER STORAGE SIZE: 99107 bytes
CPU 0 L1I next line prefetcher final stats
CPU 0 L1D next line prefetcher final stats

DRAM Statistics
 CHANNEL 0
 RQ ROW_BUFFER_HIT:      21860  ROW_BUFFER_MISS:     119653
 DBUS_CONGESTED:      63242
 WQ ROW_BUFFER_HIT:      11149  ROW_BUFFER_MISS:      48834  FULL:          0

 AVG_CONGESTED_CYCLE: 5

CPU 0 Branch Prediction Accuracy: 99.4607% MPKI: 1.00288 Average ROB Occupancy at Mispredict: 119.29

Branch types
NOT_BRANCH: 40701152 81.4023%
BRANCH_DIRECT_JUMP: 469810 0.93962%
BRANCH_INDIRECT: 153732 0.307464%
BRANCH_CONDITIONAL: 6944088 13.8882%
BRANCH_DIRECT_CALL: 679880 1.35976%
BRANCH_INDIRECT_CALL: 168745 0.33749%
BRANCH_RETURN: 882493 1.76499%
BRANCH_OTHER: 0 0%

