Initialize SIGNATURE TABLE
ST_SET: 1
ST_WAY: 256
ST_TAG_BIT: 16
ST_TAG_MASK: ffff

Initialize PATTERN TABLE
PT_SET: 512
PT_WAY: 4
SIG_DELTA_BIT: 7
C_SIG_BIT: 4
C_DELTA_BIT: 4

Initialize PREFETCH FILTER
FILTER_SET: 1024

*** ChampSim Multicore Out-of-Order Simulator ***

Warmup Instructions: 50000000
Simulation Instructions: 50000000
Number of CPUs: 1
LLC sets: 2048
LLC ways: 16
Off-chip DRAM Size: 4096 MB Channels: 1 Width: 64-bit Data Rate: 3200 MT/s

CPU 0 runs /home/sankara2004/240C/hw1/ChampSim/ipc1_public/server_034.champsimtrace.xz
CPU 0 L1I next line prefetcher
CPU 0 L1D next line prefetcher
Heartbeat CPU 0 instructions: 10000000 cycles: 3329233 heartbeat IPC: 3.00369 cumulative IPC: 3.00369 (Simulation time: 0 hr 0 min 30 sec) 
Heartbeat CPU 0 instructions: 20000002 cycles: 6651232 heartbeat IPC: 3.01024 cumulative IPC: 3.00696 (Simulation time: 0 hr 1 min 1 sec) 
Heartbeat CPU 0 instructions: 30000003 cycles: 9981967 heartbeat IPC: 3.00234 cumulative IPC: 3.00542 (Simulation time: 0 hr 1 min 31 sec) 
Heartbeat CPU 0 instructions: 40000001 cycles: 13310666 heartbeat IPC: 3.00418 cumulative IPC: 3.00511 (Simulation time: 0 hr 2 min 1 sec) 
Heartbeat CPU 0 instructions: 50000000 cycles: 16638868 heartbeat IPC: 3.00463 cumulative IPC: 3.00501 (Simulation time: 0 hr 2 min 32 sec) 

Warmup complete CPU 0 instructions: 50000002 cycles: 16638869 (Simulation time: 0 hr 2 min 32 sec) 

Heartbeat CPU 0 instructions: 60000002 cycles: 22624041 heartbeat IPC: 1.6708 cumulative IPC: 1.6708 (Simulation time: 0 hr 3 min 7 sec) 
Heartbeat CPU 0 instructions: 70000003 cycles: 29026635 heartbeat IPC: 1.56187 cumulative IPC: 1.6145 (Simulation time: 0 hr 3 min 44 sec) 
Heartbeat CPU 0 instructions: 80000002 cycles: 35090530 heartbeat IPC: 1.6491 cumulative IPC: 1.62587 (Simulation time: 0 hr 4 min 20 sec) 
Heartbeat CPU 0 instructions: 90000002 cycles: 41153146 heartbeat IPC: 1.64945 cumulative IPC: 1.6317 (Simulation time: 0 hr 4 min 56 sec) 
Heartbeat CPU 0 instructions: 100000002 cycles: 47181332 heartbeat IPC: 1.65887 cumulative IPC: 1.63707 (Simulation time: 0 hr 5 min 31 sec) 
Finished CPU 0 instructions: 50000000 cycles: 30542463 cumulative IPC: 1.63707 (Simulation time: 0 hr 5 min 31 sec) 

ChampSim completed all CPUs

Region of Interest Statistics

CPU 0 cumulative IPC: 1.63707 instructions: 50000000 cycles: 30542463
L1D TOTAL     ACCESS:   18241012  HIT:   16816990  MISS:    1424022
L1D LOAD      ACCESS:    6130625  HIT:    5474681  MISS:     655944
L1D RFO       ACCESS:    6163476  HIT:    6020759  MISS:     142717
L1D PREFETCH  ACCESS:    5946911  HIT:    5321550  MISS:     625361
L1D WRITEBACK ACCESS:          0  HIT:          0  MISS:          0
L1D PREFETCH  REQUESTED:    6165096  ISSUED:    6075658  USEFUL:     140995  USELESS:     484335
L1D AVERAGE MISS LATENCY: 18.2294 cycles
L1I TOTAL     ACCESS:   15247903  HIT:   11090716  MISS:    4157187
L1I LOAD      ACCESS:    9619726  HIT:    9445959  MISS:     173767
L1I RFO       ACCESS:          0  HIT:          0  MISS:          0
L1I PREFETCH  ACCESS:    5628177  HIT:    1644757  MISS:    3983420
L1I WRITEBACK ACCESS:          0  HIT:          0  MISS:          0
L1I PREFETCH  REQUESTED:    5891915  ISSUED:    5891900  USEFUL:    3209748  USELESS:     773654
L1I AVERAGE MISS LATENCY: 15.1752 cycles
L2C TOTAL     ACCESS:    7366822  HIT:    7178886  MISS:     187936
L2C LOAD      ACCESS:     745484  HIT:     693364  MISS:      52120
L2C RFO       ACCESS:     140910  HIT:     131918  MISS:       8992
L2C PREFETCH  ACCESS:    6129682  HIT:    6004075  MISS:     125607
L2C WRITEBACK ACCESS:     350746  HIT:     349529  MISS:       1217
L2C PREFETCH  REQUESTED:    7265149  ISSUED:    7243153  USEFUL:       3428  USELESS:     121495
L2C AVERAGE MISS LATENCY: 38.9086 cycles
LLC TOTAL     ACCESS:    2501036  HIT:    2484011  MISS:      17025
LLC LOAD      ACCESS:      52010  HIT:      48933  MISS:       3077
LLC RFO       ACCESS:       8992  HIT:       8757  MISS:        235
LLC PREFETCH  ACCESS:    2396739  HIT:    2383137  MISS:      13602
LLC WRITEBACK ACCESS:      43295  HIT:      43184  MISS:        111
LLC PREFETCH  REQUESTED:          0  ISSUED:          0  USEFUL:       3445  USELESS:       7114
LLC AVERAGE MISS LATENCY: 163.966 cycles
Major fault: 0 Minor fault: 1170
Prefetcher storage:
 Miss Ahead Prediction Table 73728 bytes
 I-Shadow cache 408 bytes
Touched + WorthPF tables 24576 bytes 
MMA filter 123 bytes 
FNL filter 272 bytes 
TOTAL PREFETCHER STORAGE SIZE: 99107 bytes
CPU 0 L1I next line prefetcher final stats
CPU 0 L1D next line prefetcher final stats

DRAM Statistics
 CHANNEL 0
 RQ ROW_BUFFER_HIT:       3849  ROW_BUFFER_MISS:      13064
 DBUS_CONGESTED:       7651
 WQ ROW_BUFFER_HIT:       1412  ROW_BUFFER_MISS:       3819  FULL:          0

 AVG_CONGESTED_CYCLE: 5

CPU 0 Branch Prediction Accuracy: 99.926% MPKI: 0.14472 Average ROB Occupancy at Mispredict: 245.484

Branch types
NOT_BRANCH: 40221093 80.4422%
BRANCH_DIRECT_JUMP: 771319 1.54264%
BRANCH_INDIRECT: 108663 0.217326%
BRANCH_CONDITIONAL: 6375046 12.7501%
BRANCH_DIRECT_CALL: 1049638 2.09928%
BRANCH_INDIRECT_CALL: 212283 0.424566%
BRANCH_RETURN: 1261926 2.52385%
BRANCH_OTHER: 0 0%

