Initialize SIGNATURE TABLE
ST_SET: 1
ST_WAY: 256
ST_TAG_BIT: 16
ST_TAG_MASK: ffff

Initialize PATTERN TABLE
PT_SET: 512
PT_WAY: 4
SIG_DELTA_BIT: 7
C_SIG_BIT: 4
C_DELTA_BIT: 4

Initialize PREFETCH FILTER
FILTER_SET: 1024

*** ChampSim Multicore Out-of-Order Simulator ***

Warmup Instructions: 50000000
Simulation Instructions: 50000000
Number of CPUs: 1
LLC sets: 2048
LLC ways: 16
Off-chip DRAM Size: 4096 MB Channels: 1 Width: 64-bit Data Rate: 3200 MT/s

CPU 0 runs /home/sankara2004/240C/hw1/ChampSim/ipc1_public/server_024.champsimtrace.xz
CPU 0 L1D next line prefetcher
Heartbeat CPU 0 instructions: 10000000 cycles: 3512595 heartbeat IPC: 2.8469 cumulative IPC: 2.8469 (Simulation time: 0 hr 1 min 10 sec) 
Heartbeat CPU 0 instructions: 20000002 cycles: 7017365 heartbeat IPC: 2.85325 cumulative IPC: 2.85007 (Simulation time: 0 hr 2 min 20 sec) 
Heartbeat CPU 0 instructions: 30000000 cycles: 10532330 heartbeat IPC: 2.84498 cumulative IPC: 2.84837 (Simulation time: 0 hr 3 min 31 sec) 
Heartbeat CPU 0 instructions: 40000000 cycles: 14044369 heartbeat IPC: 2.84735 cumulative IPC: 2.84812 (Simulation time: 0 hr 4 min 42 sec) 
Heartbeat CPU 0 instructions: 50000001 cycles: 17545691 heartbeat IPC: 2.85606 cumulative IPC: 2.8497 (Simulation time: 0 hr 5 min 52 sec) 

Warmup complete CPU 0 instructions: 50000001 cycles: 17545691 (Simulation time: 0 hr 5 min 52 sec) 

Heartbeat CPU 0 instructions: 60000003 cycles: 24379601 heartbeat IPC: 1.46329 cumulative IPC: 1.46329 (Simulation time: 0 hr 7 min 17 sec) 
Heartbeat CPU 0 instructions: 70000000 cycles: 31247057 heartbeat IPC: 1.45614 cumulative IPC: 1.45971 (Simulation time: 0 hr 8 min 43 sec) 
*** Reached end of trace for Core: 0 Repeating trace: /home/sankara2004/240C/hw1/ChampSim/ipc1_public/server_024.champsimtrace.xz
Heartbeat CPU 0 instructions: 80000003 cycles: 38096761 heartbeat IPC: 1.45992 cumulative IPC: 1.45978 (Simulation time: 0 hr 10 min 8 sec) 
Heartbeat CPU 0 instructions: 90000003 cycles: 45016574 heartbeat IPC: 1.44513 cumulative IPC: 1.45609 (Simulation time: 0 hr 11 min 35 sec) 
Heartbeat CPU 0 instructions: 100000002 cycles: 51889320 heartbeat IPC: 1.45502 cumulative IPC: 1.45587 (Simulation time: 0 hr 13 min 1 sec) 
Finished CPU 0 instructions: 50000001 cycles: 34343629 cumulative IPC: 1.45587 (Simulation time: 0 hr 13 min 1 sec) 

ChampSim completed all CPUs

Region of Interest Statistics

CPU 0 cumulative IPC: 1.45587 instructions: 50000001 cycles: 34343629
L1D TOTAL     ACCESS:   19707506  HIT:   18190136  MISS:    1517370
L1D LOAD      ACCESS:    6946185  HIT:    6264087  MISS:     682098
L1D RFO       ACCESS:    6147506  HIT:    5873654  MISS:     273852
L1D PREFETCH  ACCESS:    6613815  HIT:    6052395  MISS:     561420
L1D WRITEBACK ACCESS:          0  HIT:          0  MISS:          0
L1D PREFETCH  REQUESTED:    7002614  ISSUED:    6881154  USEFUL:     134211  USELESS:     427214
L1D AVERAGE MISS LATENCY: 26.9509 cycles
L1I TOTAL     ACCESS:   23641874  HIT:   17956603  MISS:    5685271
L1I LOAD      ACCESS:    9402401  HIT:    9278005  MISS:     124396
L1I RFO       ACCESS:          0  HIT:          0  MISS:          0
L1I PREFETCH  ACCESS:   14239473  HIT:    8678598  MISS:    5560875
L1I WRITEBACK ACCESS:          0  HIT:          0  MISS:          0
L1I PREFETCH  REQUESTED:   14367109  ISSUED:   14339251  USEFUL:    2623044  USELESS:    2937812
L1I AVERAGE MISS LATENCY: 16.738 cycles
L2C TOTAL     ACCESS:    9816518  HIT:    8957879  MISS:     858639
L2C LOAD      ACCESS:     682018  HIT:     517962  MISS:     164056
L2C RFO       ACCESS:     271926  HIT:     172657  MISS:      99269
L2C PREFETCH  ACCESS:    8342491  HIT:    7755622  MISS:     586869
L2C WRITEBACK ACCESS:     520083  HIT:     511638  MISS:       8445
L2C PREFETCH  REQUESTED:    5179187  ISSUED:    5170814  USEFUL:      19055  USELESS:     566841
L2C AVERAGE MISS LATENCY: 40.7196 cycles
LLC TOTAL     ACCESS:    2336918  HIT:    2287024  MISS:      49894
LLC LOAD      ACCESS:     163801  HIT:     158717  MISS:       5084
LLC RFO       ACCESS:      99251  HIT:      76969  MISS:      22282
LLC PREFETCH  ACCESS:    1911159  HIT:    1888804  MISS:      22355
LLC WRITEBACK ACCESS:     162707  HIT:     162534  MISS:        173
LLC PREFETCH  REQUESTED:          0  ISSUED:          0  USEFUL:       1755  USELESS:      20153
LLC AVERAGE MISS LATENCY: 206.546 cycles
Major fault: 0 Minor fault: 2384
CPU 0 L1D next line prefetcher final stats

DRAM Statistics
 CHANNEL 0
 RQ ROW_BUFFER_HIT:      16856  ROW_BUFFER_MISS:      32859
 DBUS_CONGESTED:      36940
 WQ ROW_BUFFER_HIT:       2598  ROW_BUFFER_MISS:      23321  FULL:          0

 AVG_CONGESTED_CYCLE: 6

CPU 0 Branch Prediction Accuracy: 99.7477% MPKI: 0.46156 Average ROB Occupancy at Mispredict: 172.172

Branch types
NOT_BRANCH: 40853665 81.7073%
BRANCH_DIRECT_JUMP: 566818 1.13364%
BRANCH_INDIRECT: 197171 0.394342%
BRANCH_CONDITIONAL: 6308416 12.6168%
BRANCH_DIRECT_CALL: 876400 1.7528%
BRANCH_INDIRECT_CALL: 160491 0.320982%
BRANCH_RETURN: 1036885 2.07377%
BRANCH_OTHER: 0 0%

