Initialize SIGNATURE TABLE
ST_SET: 1
ST_WAY: 256
ST_TAG_BIT: 16
ST_TAG_MASK: ffff

Initialize PATTERN TABLE
PT_SET: 512
PT_WAY: 4
SIG_DELTA_BIT: 7
C_SIG_BIT: 4
C_DELTA_BIT: 4

Initialize PREFETCH FILTER
FILTER_SET: 1024

*** ChampSim Multicore Out-of-Order Simulator ***

Warmup Instructions: 50000000
Simulation Instructions: 50000000
Number of CPUs: 1
LLC sets: 2048
LLC ways: 16
Off-chip DRAM Size: 4096 MB Channels: 1 Width: 64-bit Data Rate: 3200 MT/s

CPU 0 runs /home/sankara2004/240C/hw1/ChampSim/ipc1_public/server_038.champsimtrace.xz
CPU 0 L1I next line prefetcher
CPU 0 L1D next line prefetcher
Heartbeat CPU 0 instructions: 10000001 cycles: 3320473 heartbeat IPC: 3.01162 cumulative IPC: 3.01162 (Simulation time: 0 hr 0 min 32 sec) 
Heartbeat CPU 0 instructions: 20000003 cycles: 6643800 heartbeat IPC: 3.00903 cumulative IPC: 3.01033 (Simulation time: 0 hr 1 min 3 sec) 
Heartbeat CPU 0 instructions: 30000003 cycles: 9963303 heartbeat IPC: 3.0125 cumulative IPC: 3.01105 (Simulation time: 0 hr 1 min 34 sec) 
Heartbeat CPU 0 instructions: 40000001 cycles: 13287076 heartbeat IPC: 3.00863 cumulative IPC: 3.01044 (Simulation time: 0 hr 2 min 9 sec) 
Heartbeat CPU 0 instructions: 50000001 cycles: 16609014 heartbeat IPC: 3.01029 cumulative IPC: 3.01041 (Simulation time: 0 hr 2 min 40 sec) 

Warmup complete CPU 0 instructions: 50000001 cycles: 16609014 (Simulation time: 0 hr 2 min 40 sec) 

Heartbeat CPU 0 instructions: 60000002 cycles: 23041826 heartbeat IPC: 1.55453 cumulative IPC: 1.55453 (Simulation time: 0 hr 3 min 18 sec) 
Heartbeat CPU 0 instructions: 70000001 cycles: 29431640 heartbeat IPC: 1.56499 cumulative IPC: 1.55974 (Simulation time: 0 hr 3 min 56 sec) 
Heartbeat CPU 0 instructions: 80000000 cycles: 35833912 heartbeat IPC: 1.56195 cumulative IPC: 1.56048 (Simulation time: 0 hr 4 min 34 sec) 
Heartbeat CPU 0 instructions: 90000001 cycles: 42244635 heartbeat IPC: 1.55989 cumulative IPC: 1.56033 (Simulation time: 0 hr 5 min 12 sec) 
*** Reached end of trace for Core: 0 Repeating trace: /home/sankara2004/240C/hw1/ChampSim/ipc1_public/server_038.champsimtrace.xz
Heartbeat CPU 0 instructions: 100000002 cycles: 48667962 heartbeat IPC: 1.55683 cumulative IPC: 1.55963 (Simulation time: 0 hr 5 min 51 sec) 
Finished CPU 0 instructions: 50000001 cycles: 32058948 cumulative IPC: 1.55963 (Simulation time: 0 hr 5 min 51 sec) 

ChampSim completed all CPUs

Region of Interest Statistics

CPU 0 cumulative IPC: 1.55963 instructions: 50000001 cycles: 32058948
L1D TOTAL     ACCESS:   18697485  HIT:   17715135  MISS:     982350
L1D LOAD      ACCESS:    6361234  HIT:    5867738  MISS:     493496
L1D RFO       ACCESS:    6211234  HIT:    6146949  MISS:      64285
L1D PREFETCH  ACCESS:    6125017  HIT:    5700448  MISS:     424569
L1D WRITEBACK ACCESS:          0  HIT:          0  MISS:          0
L1D PREFETCH  REQUESTED:    6398085  ISSUED:    6245335  USEFUL:     117827  USELESS:     306745
L1D AVERAGE MISS LATENCY: 29.3458 cycles
L1I TOTAL     ACCESS:   16021541  HIT:   11252582  MISS:    4768959
L1I LOAD      ACCESS:    9404757  HIT:    9304277  MISS:     100480
L1I RFO       ACCESS:          0  HIT:          0  MISS:          0
L1I PREFETCH  ACCESS:    6616784  HIT:    1948305  MISS:    4668479
L1I WRITEBACK ACCESS:          0  HIT:          0  MISS:          0
L1I PREFETCH  REQUESTED:    6888127  ISSUED:    6888127  USEFUL:    4024763  USELESS:     643724
L1I AVERAGE MISS LATENCY: 14.8518 cycles
L2C TOTAL     ACCESS:    8117451  HIT:    7797651  MISS:     319800
L2C LOAD      ACCESS:     564956  HIT:     420560  MISS:     144396
L2C RFO       ACCESS:      64016  HIT:      35738  MISS:      28278
L2C PREFETCH  ACCESS:    7196750  HIT:    7050549  MISS:     146201
L2C WRITEBACK ACCESS:     291729  HIT:     290804  MISS:        925
L2C PREFETCH  REQUESTED:    8009547  ISSUED:    7989092  USEFUL:       6452  USELESS:     139610
L2C AVERAGE MISS LATENCY: 45.2959 cycles
LLC TOTAL     ACCESS:    2105273  HIT:    2047334  MISS:      57939
LLC LOAD      ACCESS:     144379  HIT:     131778  MISS:      12601
LLC RFO       ACCESS:      28278  HIT:      23088  MISS:       5190
LLC PREFETCH  ACCESS:    1785606  HIT:    1745964  MISS:      39642
LLC WRITEBACK ACCESS:     147010  HIT:     146504  MISS:        506
LLC PREFETCH  REQUESTED:          0  ISSUED:          0  USEFUL:       3663  USELESS:      35605
LLC AVERAGE MISS LATENCY: 169.225 cycles
Major fault: 0 Minor fault: 5526
Prefetcher storage:
 Miss Ahead Prediction Table 73728 bytes
 I-Shadow cache 408 bytes
Touched + WorthPF tables 24576 bytes 
MMA filter 123 bytes 
FNL filter 272 bytes 
TOTAL PREFETCHER STORAGE SIZE: 99107 bytes
CPU 0 L1I next line prefetcher final stats
CPU 0 L1D next line prefetcher final stats

DRAM Statistics
 CHANNEL 0
 RQ ROW_BUFFER_HIT:      10812  ROW_BUFFER_MISS:      46616
 DBUS_CONGESTED:      25846
 WQ ROW_BUFFER_HIT:       1311  ROW_BUFFER_MISS:      11515  FULL:          0

 AVG_CONGESTED_CYCLE: 5

CPU 0 Branch Prediction Accuracy: 99.9279% MPKI: 0.12968 Average ROB Occupancy at Mispredict: 252.831

Branch types
NOT_BRANCH: 41006327 82.0127%
BRANCH_DIRECT_JUMP: 541914 1.08383%
BRANCH_INDIRECT: 59690 0.11938%
BRANCH_CONDITIONAL: 5915848 11.8317%
BRANCH_DIRECT_CALL: 1003588 2.00718%
BRANCH_INDIRECT_CALL: 234499 0.468998%
BRANCH_RETURN: 1238071 2.47614%
BRANCH_OTHER: 0 0%

