Initialize SIGNATURE TABLE
ST_SET: 1
ST_WAY: 256
ST_TAG_BIT: 16
ST_TAG_MASK: ffff

Initialize PATTERN TABLE
PT_SET: 512
PT_WAY: 4
SIG_DELTA_BIT: 7
C_SIG_BIT: 4
C_DELTA_BIT: 4

Initialize PREFETCH FILTER
FILTER_SET: 1024

*** ChampSim Multicore Out-of-Order Simulator ***

Warmup Instructions: 50000000
Simulation Instructions: 50000000
Number of CPUs: 1
LLC sets: 2048
LLC ways: 16
Off-chip DRAM Size: 4096 MB Channels: 1 Width: 64-bit Data Rate: 3200 MT/s

CPU 0 runs /home/sankara2004/240C/hw1/ChampSim/ipc1_public/server_002.champsimtrace.xz
CPU 0 L1D next line prefetcher
Heartbeat CPU 0 instructions: 10000000 cycles: 3581362 heartbeat IPC: 2.79223 cumulative IPC: 2.79223 (Simulation time: 0 hr 1 min 4 sec) 
Heartbeat CPU 0 instructions: 20000002 cycles: 7171006 heartbeat IPC: 2.78579 cumulative IPC: 2.78901 (Simulation time: 0 hr 2 min 15 sec) 
Heartbeat CPU 0 instructions: 30000000 cycles: 10711776 heartbeat IPC: 2.82424 cumulative IPC: 2.80066 (Simulation time: 0 hr 3 min 25 sec) 
Heartbeat CPU 0 instructions: 40000000 cycles: 14262021 heartbeat IPC: 2.81671 cumulative IPC: 2.80465 (Simulation time: 0 hr 4 min 37 sec) 
Heartbeat CPU 0 instructions: 50000001 cycles: 17809792 heartbeat IPC: 2.81867 cumulative IPC: 2.80744 (Simulation time: 0 hr 5 min 49 sec) 

Warmup complete CPU 0 instructions: 50000001 cycles: 17809792 (Simulation time: 0 hr 5 min 49 sec) 

Heartbeat CPU 0 instructions: 60000000 cycles: 24248921 heartbeat IPC: 1.553 cumulative IPC: 1.553 (Simulation time: 0 hr 7 min 18 sec) 
Heartbeat CPU 0 instructions: 70000003 cycles: 30685868 heartbeat IPC: 1.55353 cumulative IPC: 1.55327 (Simulation time: 0 hr 8 min 45 sec) 
Heartbeat CPU 0 instructions: 80000003 cycles: 37125055 heartbeat IPC: 1.55299 cumulative IPC: 1.55318 (Simulation time: 0 hr 10 min 12 sec) 
Heartbeat CPU 0 instructions: 90000002 cycles: 43560858 heartbeat IPC: 1.55381 cumulative IPC: 1.55333 (Simulation time: 0 hr 11 min 39 sec) 
Heartbeat CPU 0 instructions: 100000003 cycles: 49995947 heartbeat IPC: 1.55398 cumulative IPC: 1.55346 (Simulation time: 0 hr 13 min 6 sec) 
Finished CPU 0 instructions: 50000002 cycles: 32186155 cumulative IPC: 1.55346 (Simulation time: 0 hr 13 min 6 sec) 

ChampSim completed all CPUs

Region of Interest Statistics

CPU 0 cumulative IPC: 1.55346 instructions: 50000002 cycles: 32186155
L1D TOTAL     ACCESS:   21522250  HIT:   21521441  MISS:        809
L1D LOAD      ACCESS:    6600769  HIT:    6600392  MISS:        377
L1D RFO       ACCESS:    8432998  HIT:    8432885  MISS:        113
L1D PREFETCH  ACCESS:    6488483  HIT:    6488164  MISS:        319
L1D WRITEBACK ACCESS:          0  HIT:          0  MISS:          0
L1D PREFETCH  REQUESTED:    6600819  ISSUED:    6495894  USEFUL:         91  USELESS:        230
L1D AVERAGE MISS LATENCY: 33.8776 cycles
L1I TOTAL     ACCESS:   25251180  HIT:   18749651  MISS:    6501529
L1I LOAD      ACCESS:   10042012  HIT:   10041426  MISS:        586
L1I RFO       ACCESS:          0  HIT:          0  MISS:          0
L1I PREFETCH  ACCESS:   15209168  HIT:    8708225  MISS:    6500943
L1I WRITEBACK ACCESS:          0  HIT:          0  MISS:          0
L1I PREFETCH  REQUESTED:   15210521  ISSUED:   15209384  USEFUL:    3080066  USELESS:    3420833
L1I AVERAGE MISS LATENCY: 14.244 cycles
L2C TOTAL     ACCESS:    8097945  HIT:    8097524  MISS:        421
L2C LOAD      ACCESS:        801  HIT:        728  MISS:         73
L2C RFO       ACCESS:        112  HIT:        109  MISS:          3
L2C PREFETCH  ACCESS:    8096696  HIT:    8096352  MISS:        344
L2C WRITEBACK ACCESS:        336  HIT:        335  MISS:          1
L2C PREFETCH  REQUESTED:    3285342  ISSUED:    3285303  USEFUL:         64  USELESS:        196
L2C AVERAGE MISS LATENCY: 60.6936 cycles
LLC TOTAL     ACCESS:     789304  HIT:     788249  MISS:       1055
LLC LOAD      ACCESS:         73  HIT:         59  MISS:         14
LLC RFO       ACCESS:          3  HIT:          1  MISS:          2
LLC PREFETCH  ACCESS:     789112  HIT:     788076  MISS:       1036
LLC WRITEBACK ACCESS:        116  HIT:        113  MISS:          3
LLC PREFETCH  REQUESTED:          0  ISSUED:          0  USEFUL:          7  USELESS:        259
LLC AVERAGE MISS LATENCY: 175.411 cycles
Major fault: 0 Minor fault: 1884
CPU 0 L1D next line prefetcher final stats

DRAM Statistics
 CHANNEL 0
 RQ ROW_BUFFER_HIT:         54  ROW_BUFFER_MISS:        998
 DBUS_CONGESTED:        201
 WQ ROW_BUFFER_HIT:         53  ROW_BUFFER_MISS:        693  FULL:          0

 AVG_CONGESTED_CYCLE: 6

CPU 0 Branch Prediction Accuracy: 99.8789% MPKI: 0.20388 Average ROB Occupancy at Mispredict: 261.008

Branch types
NOT_BRANCH: 41580693 83.1614%
BRANCH_DIRECT_JUMP: 461630 0.92326%
BRANCH_INDIRECT: 0 0%
BRANCH_CONDITIONAL: 5376437 10.7529%
BRANCH_DIRECT_CALL: 1175775 2.35155%
BRANCH_INDIRECT_CALL: 114840 0.22968%
BRANCH_RETURN: 1290625 2.58125%
BRANCH_OTHER: 0 0%

