Initialize SIGNATURE TABLE
ST_SET: 1
ST_WAY: 256
ST_TAG_BIT: 16
ST_TAG_MASK: ffff

Initialize PATTERN TABLE
PT_SET: 512
PT_WAY: 4
SIG_DELTA_BIT: 7
C_SIG_BIT: 4
C_DELTA_BIT: 4

Initialize PREFETCH FILTER
FILTER_SET: 1024

*** ChampSim Multicore Out-of-Order Simulator ***

Warmup Instructions: 50000000
Simulation Instructions: 50000000
Number of CPUs: 1
LLC sets: 2048
LLC ways: 16
Off-chip DRAM Size: 4096 MB Channels: 1 Width: 64-bit Data Rate: 3200 MT/s

CPU 0 runs /home/sankara2004/240C/hw1/ChampSim/ipc1_public/spec_gobmk_001.champsimtrace.xz
CPU 0 L1I next line prefetcher
CPU 0 L1D next line prefetcher
Heartbeat CPU 0 instructions: 10000003 cycles: 3506795 heartbeat IPC: 2.85161 cumulative IPC: 2.85161 (Simulation time: 0 hr 0 min 26 sec) 
Heartbeat CPU 0 instructions: 20000002 cycles: 6986957 heartbeat IPC: 2.87343 cumulative IPC: 2.86248 (Simulation time: 0 hr 0 min 52 sec) 
Heartbeat CPU 0 instructions: 30000002 cycles: 10505801 heartbeat IPC: 2.84184 cumulative IPC: 2.85557 (Simulation time: 0 hr 1 min 18 sec) 
Heartbeat CPU 0 instructions: 40000001 cycles: 14024708 heartbeat IPC: 2.84179 cumulative IPC: 2.85211 (Simulation time: 0 hr 1 min 44 sec) 
Heartbeat CPU 0 instructions: 50000001 cycles: 17564589 heartbeat IPC: 2.82495 cumulative IPC: 2.84664 (Simulation time: 0 hr 2 min 10 sec) 

Warmup complete CPU 0 instructions: 50000001 cycles: 17564589 (Simulation time: 0 hr 2 min 10 sec) 

Heartbeat CPU 0 instructions: 60000000 cycles: 26426135 heartbeat IPC: 1.12847 cumulative IPC: 1.12847 (Simulation time: 0 hr 2 min 41 sec) 
Heartbeat CPU 0 instructions: 70000002 cycles: 34947349 heartbeat IPC: 1.17354 cumulative IPC: 1.15057 (Simulation time: 0 hr 3 min 10 sec) 
Heartbeat CPU 0 instructions: 80000003 cycles: 43867989 heartbeat IPC: 1.121 cumulative IPC: 1.14054 (Simulation time: 0 hr 3 min 41 sec) 
Heartbeat CPU 0 instructions: 90000001 cycles: 52440178 heartbeat IPC: 1.16656 cumulative IPC: 1.14693 (Simulation time: 0 hr 4 min 11 sec) 
Heartbeat CPU 0 instructions: 100000003 cycles: 61343395 heartbeat IPC: 1.12319 cumulative IPC: 1.14211 (Simulation time: 0 hr 4 min 42 sec) 
Finished CPU 0 instructions: 50000002 cycles: 43778806 cumulative IPC: 1.14211 (Simulation time: 0 hr 4 min 42 sec) 

ChampSim completed all CPUs

Region of Interest Statistics

CPU 0 cumulative IPC: 1.14211 instructions: 50000002 cycles: 43778806
L1D TOTAL     ACCESS:   18026462  HIT:   17646905  MISS:     379557
L1D LOAD      ACCESS:    7231207  HIT:    7096492  MISS:     134715
L1D RFO       ACCESS:    3702752  HIT:    3598201  MISS:     104551
L1D PREFETCH  ACCESS:    7092503  HIT:    6952212  MISS:     140291
L1D WRITEBACK ACCESS:          0  HIT:          0  MISS:          0
L1D PREFETCH  REQUESTED:    7236455  ISSUED:    7153592  USEFUL:      45577  USELESS:      94720
L1D AVERAGE MISS LATENCY: 34.0609 cycles
L1I TOTAL     ACCESS:   12299821  HIT:   11118572  MISS:    1181249
L1I LOAD      ACCESS:    8960883  HIT:    8813779  MISS:     147104
L1I RFO       ACCESS:          0  HIT:          0  MISS:          0
L1I PREFETCH  ACCESS:    3338938  HIT:    2304793  MISS:    1034145
L1I WRITEBACK ACCESS:          0  HIT:          0  MISS:          0
L1I PREFETCH  REQUESTED:    3466098  ISSUED:    3466083  USEFUL:     563513  USELESS:     470600
L1I AVERAGE MISS LATENCY: 15.0246 cycles
L2C TOTAL     ACCESS:    2368599  HIT:    2244391  MISS:     124208
L2C LOAD      ACCESS:     236321  HIT:     201324  MISS:      34997
L2C RFO       ACCESS:     104198  HIT:      70317  MISS:      33881
L2C PREFETCH  ACCESS:    1888778  HIT:    1833517  MISS:      55261
L2C WRITEBACK ACCESS:     139302  HIT:     139233  MISS:         69
L2C PREFETCH  REQUESTED:    1806206  ISSUED:    1806020  USEFUL:       4684  USELESS:      51039
L2C AVERAGE MISS LATENCY: 67.2066 cycles
LLC TOTAL     ACCESS:     341757  HIT:     301312  MISS:      40445
LLC LOAD      ACCESS:      34990  HIT:      26737  MISS:       8253
LLC RFO       ACCESS:      33881  HIT:      26195  MISS:       7686
LLC PREFETCH  ACCESS:     228281  HIT:     204079  MISS:      24202
LLC WRITEBACK ACCESS:      44605  HIT:      44301  MISS:        304
LLC PREFETCH  REQUESTED:          0  ISSUED:          0  USEFUL:       1462  USELESS:      20874
LLC AVERAGE MISS LATENCY: 180.059 cycles
Major fault: 0 Minor fault: 4157
Prefetcher storage:
 Miss Ahead Prediction Table 73728 bytes
 I-Shadow cache 408 bytes
Touched + WorthPF tables 24576 bytes 
MMA filter 123 bytes 
FNL filter 272 bytes 
TOTAL PREFETCHER STORAGE SIZE: 99107 bytes
CPU 0 L1I next line prefetcher final stats
CPU 0 L1D next line prefetcher final stats

DRAM Statistics
 CHANNEL 0
 RQ ROW_BUFFER_HIT:       5425  ROW_BUFFER_MISS:      34714
 DBUS_CONGESTED:      25324
 WQ ROW_BUFFER_HIT:       1693  ROW_BUFFER_MISS:      16122  FULL:          0

 AVG_CONGESTED_CYCLE: 5

CPU 0 Branch Prediction Accuracy: 94.7729% MPKI: 9.72684 Average ROB Occupancy at Mispredict: 53.1863

Branch types
NOT_BRANCH: 40695382 81.3908%
BRANCH_DIRECT_JUMP: 422107 0.844214%
BRANCH_INDIRECT: 65 0.00013%
BRANCH_CONDITIONAL: 8105005 16.21%
BRANCH_DIRECT_CALL: 374913 0.749826%
BRANCH_INDIRECT_CALL: 13657 0.027314%
BRANCH_RETURN: 388556 0.777112%
BRANCH_OTHER: 0 0%

