Initialize SIGNATURE TABLE
ST_SET: 1
ST_WAY: 256
ST_TAG_BIT: 16
ST_TAG_MASK: ffff

Initialize PATTERN TABLE
PT_SET: 512
PT_WAY: 4
SIG_DELTA_BIT: 7
C_SIG_BIT: 4
C_DELTA_BIT: 4

Initialize PREFETCH FILTER
FILTER_SET: 1024

*** ChampSim Multicore Out-of-Order Simulator ***

Warmup Instructions: 50000000
Simulation Instructions: 50000000
Number of CPUs: 1
LLC sets: 2048
LLC ways: 16
Off-chip DRAM Size: 4096 MB Channels: 1 Width: 64-bit Data Rate: 3200 MT/s

CPU 0 runs /home/sankara2004/240C/hw1/ChampSim/ipc1_public/spec_gcc_002.champsimtrace.xz
CPU 0 L1I next line prefetcher
CPU 0 L1D next line prefetcher
Heartbeat CPU 0 instructions: 10000002 cycles: 3612551 heartbeat IPC: 2.76813 cumulative IPC: 2.76813 (Simulation time: 0 hr 0 min 27 sec) 
Heartbeat CPU 0 instructions: 20000000 cycles: 7201545 heartbeat IPC: 2.7863 cumulative IPC: 2.77718 (Simulation time: 0 hr 0 min 54 sec) 
Heartbeat CPU 0 instructions: 30000000 cycles: 10859611 heartbeat IPC: 2.73369 cumulative IPC: 2.76253 (Simulation time: 0 hr 1 min 22 sec) 
Heartbeat CPU 0 instructions: 40000000 cycles: 14435792 heartbeat IPC: 2.79628 cumulative IPC: 2.77089 (Simulation time: 0 hr 1 min 48 sec) 
Heartbeat CPU 0 instructions: 50000002 cycles: 17943497 heartbeat IPC: 2.85087 cumulative IPC: 2.78653 (Simulation time: 0 hr 2 min 13 sec) 

Warmup complete CPU 0 instructions: 50000002 cycles: 17943497 (Simulation time: 0 hr 2 min 13 sec) 

Heartbeat CPU 0 instructions: 60000001 cycles: 58297182 heartbeat IPC: 0.247809 cumulative IPC: 0.247809 (Simulation time: 0 hr 3 min 56 sec) 
Heartbeat CPU 0 instructions: 70000001 cycles: 90457195 heartbeat IPC: 0.310945 cumulative IPC: 0.27581 (Simulation time: 0 hr 5 min 24 sec) 
Heartbeat CPU 0 instructions: 80000002 cycles: 139685931 heartbeat IPC: 0.203133 cumulative IPC: 0.246422 (Simulation time: 0 hr 7 min 27 sec) 
Heartbeat CPU 0 instructions: 90000001 cycles: 184451597 heartbeat IPC: 0.223385 cumulative IPC: 0.240229 (Simulation time: 0 hr 9 min 22 sec) 
Heartbeat CPU 0 instructions: 100000000 cycles: 216632098 heartbeat IPC: 0.310747 cumulative IPC: 0.25165 (Simulation time: 0 hr 10 min 49 sec) 
Finished CPU 0 instructions: 50000002 cycles: 198688609 cumulative IPC: 0.25165 (Simulation time: 0 hr 10 min 49 sec) 

ChampSim completed all CPUs

Region of Interest Statistics

CPU 0 cumulative IPC: 0.25165 instructions: 50000002 cycles: 198688609
L1D TOTAL     ACCESS:   18268408  HIT:   13034796  MISS:    5233612
L1D LOAD      ACCESS:    6376177  HIT:    5317099  MISS:    1059078
L1D RFO       ACCESS:    7031238  HIT:    3430583  MISS:    3600655
L1D PREFETCH  ACCESS:    4860993  HIT:    4287114  MISS:     573879
L1D WRITEBACK ACCESS:          0  HIT:          0  MISS:          0
L1D PREFETCH  REQUESTED:    6396592  ISSUED:    6326858  USEFUL:     414142  USELESS:     159953
L1D AVERAGE MISS LATENCY: 335.364 cycles
L1I TOTAL     ACCESS:   13977911  HIT:   12893198  MISS:    1084713
L1I LOAD      ACCESS:   12098564  HIT:   11952886  MISS:     145678
L1I RFO       ACCESS:          0  HIT:          0  MISS:          0
L1I PREFETCH  ACCESS:    1879347  HIT:     940312  MISS:     939035
L1I WRITEBACK ACCESS:          0  HIT:          0  MISS:          0
L1I PREFETCH  REQUESTED:    2019205  ISSUED:    2017030  USEFUL:     565359  USELESS:     373641
L1I AVERAGE MISS LATENCY: 60.316 cycles
L2C TOTAL     ACCESS:   10425686  HIT:    5102393  MISS:    5323293
L2C LOAD      ACCESS:     357797  HIT:     174764  MISS:     183033
L2C RFO       ACCESS:    3599069  HIT:      12376  MISS:    3586693
L2C PREFETCH  ACCESS:    2743340  HIT:    1189977  MISS:    1553363
L2C WRITEBACK ACCESS:    3725480  HIT:    3725276  MISS:        204
L2C PREFETCH  REQUESTED:    3365743  ISSUED:    3365614  USEFUL:      39758  USELESS:    1513790
L2C AVERAGE MISS LATENCY: 346.13 cycles
LLC TOTAL     ACCESS:   10016846  HIT:    6130651  MISS:    3886195
LLC LOAD      ACCESS:     182833  HIT:     106045  MISS:      76788
LLC RFO       ACCESS:    3586692  HIT:     584115  MISS:    3002577
LLC PREFETCH  ACCESS:    2580841  HIT:    1774012  MISS:     806829
LLC WRITEBACK ACCESS:    3666480  HIT:    3666479  MISS:          1
LLC PREFETCH  REQUESTED:          0  ISSUED:          0  USEFUL:     143888  USELESS:     658426
LLC AVERAGE MISS LATENCY: 455.669 cycles
Major fault: 0 Minor fault: 4152
Prefetcher storage:
 Miss Ahead Prediction Table 73728 bytes
 I-Shadow cache 408 bytes
Touched + WorthPF tables 24576 bytes 
MMA filter 123 bytes 
FNL filter 272 bytes 
TOTAL PREFETCHER STORAGE SIZE: 99107 bytes
CPU 0 L1I next line prefetcher final stats
CPU 0 L1D next line prefetcher final stats

DRAM Statistics
 CHANNEL 0
 RQ ROW_BUFFER_HIT:    1020167  ROW_BUFFER_MISS:    2863379
 DBUS_CONGESTED:    5568224
 WQ ROW_BUFFER_HIT:     946797  ROW_BUFFER_MISS:    2232106  FULL:          0

 AVG_CONGESTED_CYCLE: 6

CPU 0 Branch Prediction Accuracy: 99.5987% MPKI: 0.82446 Average ROB Occupancy at Mispredict: 125.847

Branch types
NOT_BRANCH: 39726800 79.4536%
BRANCH_DIRECT_JUMP: 391438 0.782876%
BRANCH_INDIRECT: 62076 0.124152%
BRANCH_CONDITIONAL: 8421539 16.8431%
BRANCH_DIRECT_CALL: 672961 1.34592%
BRANCH_INDIRECT_CALL: 26115 0.05223%
BRANCH_RETURN: 699082 1.39816%
BRANCH_OTHER: 0 0%

