Initialize SIGNATURE TABLE
ST_SET: 1
ST_WAY: 256
ST_TAG_BIT: 16
ST_TAG_MASK: ffff

Initialize PATTERN TABLE
PT_SET: 512
PT_WAY: 4
SIG_DELTA_BIT: 7
C_SIG_BIT: 4
C_DELTA_BIT: 4

Initialize PREFETCH FILTER
FILTER_SET: 1024

*** ChampSim Multicore Out-of-Order Simulator ***

Warmup Instructions: 50000000
Simulation Instructions: 50000000
Number of CPUs: 1
LLC sets: 2048
LLC ways: 16
Off-chip DRAM Size: 4096 MB Channels: 1 Width: 64-bit Data Rate: 3200 MT/s

CPU 0 runs /home/sankara2004/240C/hw1/ChampSim/ipc1_public/spec_perlbench_001.champsimtrace.xz
CPU 0 L1I next line prefetcher
CPU 0 L1D next line prefetcher
Heartbeat CPU 0 instructions: 10000000 cycles: 3275916 heartbeat IPC: 3.05258 cumulative IPC: 3.05258 (Simulation time: 0 hr 0 min 28 sec) 
Heartbeat CPU 0 instructions: 20000000 cycles: 6540549 heartbeat IPC: 3.06313 cumulative IPC: 3.05785 (Simulation time: 0 hr 0 min 57 sec) 
Heartbeat CPU 0 instructions: 30000002 cycles: 9857225 heartbeat IPC: 3.01507 cumulative IPC: 3.04345 (Simulation time: 0 hr 1 min 26 sec) 
Heartbeat CPU 0 instructions: 40000002 cycles: 13112820 heartbeat IPC: 3.07164 cumulative IPC: 3.05045 (Simulation time: 0 hr 1 min 54 sec) 
Heartbeat CPU 0 instructions: 50000001 cycles: 16386612 heartbeat IPC: 3.05456 cumulative IPC: 3.05127 (Simulation time: 0 hr 2 min 20 sec) 

Warmup complete CPU 0 instructions: 50000001 cycles: 16386612 (Simulation time: 0 hr 2 min 20 sec) 

Heartbeat CPU 0 instructions: 60000001 cycles: 24677187 heartbeat IPC: 1.20619 cumulative IPC: 1.20619 (Simulation time: 0 hr 2 min 55 sec) 
Heartbeat CPU 0 instructions: 70000000 cycles: 32842473 heartbeat IPC: 1.2247 cumulative IPC: 1.21537 (Simulation time: 0 hr 3 min 31 sec) 
Heartbeat CPU 0 instructions: 80000000 cycles: 41238357 heartbeat IPC: 1.19106 cumulative IPC: 1.20716 (Simulation time: 0 hr 4 min 6 sec) 
Heartbeat CPU 0 instructions: 90000000 cycles: 46954431 heartbeat IPC: 1.74945 cumulative IPC: 1.30857 (Simulation time: 0 hr 4 min 33 sec) 
Heartbeat CPU 0 instructions: 100000002 cycles: 52821522 heartbeat IPC: 1.70442 cumulative IPC: 1.37231 (Simulation time: 0 hr 5 min 1 sec) 
Finished CPU 0 instructions: 50000001 cycles: 36434910 cumulative IPC: 1.37231 (Simulation time: 0 hr 5 min 1 sec) 

ChampSim completed all CPUs

Region of Interest Statistics

CPU 0 cumulative IPC: 1.37231 instructions: 50000001 cycles: 36434910
L1D TOTAL     ACCESS:   20707629  HIT:   20292516  MISS:     415113
L1D LOAD      ACCESS:    7183198  HIT:    6969495  MISS:     213703
L1D RFO       ACCESS:    6542448  HIT:    6523939  MISS:      18509
L1D PREFETCH  ACCESS:    6981983  HIT:    6799082  MISS:     182901
L1D WRITEBACK ACCESS:          0  HIT:          0  MISS:          0
L1D PREFETCH  REQUESTED:    7198990  ISSUED:    7082516  USEFUL:      55209  USELESS:     127687
L1D AVERAGE MISS LATENCY: 57.6616 cycles
L1I TOTAL     ACCESS:   10908801  HIT:   10221393  MISS:     687408
L1I LOAD      ACCESS:    9148695  HIT:    9048453  MISS:     100242
L1I RFO       ACCESS:          0  HIT:          0  MISS:          0
L1I PREFETCH  ACCESS:    1760106  HIT:    1172940  MISS:     587166
L1I WRITEBACK ACCESS:          0  HIT:          0  MISS:          0
L1I PREFETCH  REQUESTED:    1832430  ISSUED:    1832393  USEFUL:     358832  USELESS:     228301
L1I AVERAGE MISS LATENCY: 17.0723 cycles
L2C TOTAL     ACCESS:    1526347  HIT:    1358514  MISS:     167833
L2C LOAD      ACCESS:     293742  HIT:     212433  MISS:      81309
L2C RFO       ACCESS:      18272  HIT:      12821  MISS:       5451
L2C PREFETCH  ACCESS:    1135373  HIT:    1054662  MISS:      80711
L2C WRITEBACK ACCESS:      78960  HIT:      78598  MISS:        362
L2C PREFETCH  REQUESTED:    1160947  ISSUED:    1160921  USEFUL:       6020  USELESS:      74685
L2C AVERAGE MISS LATENCY: 118.577 cycles
LLC TOTAL     ACCESS:     441925  HIT:     297789  MISS:     144136
LLC LOAD      ACCESS:      81305  HIT:      33124  MISS:      48181
LLC RFO       ACCESS:       5451  HIT:       2427  MISS:       3024
LLC PREFETCH  ACCESS:     329695  HIT:     237280  MISS:      92415
LLC WRITEBACK ACCESS:      25474  HIT:      24958  MISS:        516
LLC PREFETCH  REQUESTED:          0  ISSUED:          0  USEFUL:      15298  USELESS:      77320
LLC AVERAGE MISS LATENCY: 159.911 cycles
Major fault: 0 Minor fault: 6365
Prefetcher storage:
 Miss Ahead Prediction Table 73728 bytes
 I-Shadow cache 408 bytes
Touched + WorthPF tables 24576 bytes 
MMA filter 123 bytes 
FNL filter 272 bytes 
TOTAL PREFETCHER STORAGE SIZE: 99107 bytes
CPU 0 L1I next line prefetcher final stats
CPU 0 L1D next line prefetcher final stats

DRAM Statistics
 CHANNEL 0
 RQ ROW_BUFFER_HIT:      32852  ROW_BUFFER_MISS:     110767
 DBUS_CONGESTED:      60310
 WQ ROW_BUFFER_HIT:       4039  ROW_BUFFER_MISS:      13362  FULL:          0

 AVG_CONGESTED_CYCLE: 4

CPU 0 Branch Prediction Accuracy: 98.7418% MPKI: 2.47758 Average ROB Occupancy at Mispredict: 77.5192

Branch types
NOT_BRANCH: 40154100 80.3082%
BRANCH_DIRECT_JUMP: 817094 1.63419%
BRANCH_INDIRECT: 303787 0.607574%
BRANCH_CONDITIONAL: 7492103 14.9842%
BRANCH_DIRECT_CALL: 471777 0.943554%
BRANCH_INDIRECT_CALL: 144546 0.289092%
BRANCH_RETURN: 616324 1.23265%
BRANCH_OTHER: 0 0%

