Initialize SIGNATURE TABLE
ST_SET: 1
ST_WAY: 256
ST_TAG_BIT: 16
ST_TAG_MASK: ffff

Initialize PATTERN TABLE
PT_SET: 512
PT_WAY: 4
SIG_DELTA_BIT: 7
C_SIG_BIT: 4
C_DELTA_BIT: 4

Initialize PREFETCH FILTER
FILTER_SET: 1024

*** ChampSim Multicore Out-of-Order Simulator ***

Warmup Instructions: 50000000
Simulation Instructions: 50000000
Number of CPUs: 1
LLC sets: 2048
LLC ways: 16
Off-chip DRAM Size: 4096 MB Channels: 1 Width: 64-bit Data Rate: 3200 MT/s

CPU 0 runs /home/sankara2004/240C/hw1/ChampSim/ipc1_public/client_003.champsimtrace.xz
CPU 0 L1D next line prefetcher
Heartbeat CPU 0 instructions: 10000000 cycles: 3478969 heartbeat IPC: 2.87441 cumulative IPC: 2.87441 (Simulation time: 0 hr 1 min 10 sec) 
Heartbeat CPU 0 instructions: 20000002 cycles: 6933993 heartbeat IPC: 2.89434 cumulative IPC: 2.88434 (Simulation time: 0 hr 2 min 25 sec) 
Heartbeat CPU 0 instructions: 30000003 cycles: 10495326 heartbeat IPC: 2.80794 cumulative IPC: 2.85842 (Simulation time: 0 hr 3 min 40 sec) 
Heartbeat CPU 0 instructions: 40000001 cycles: 14112050 heartbeat IPC: 2.76493 cumulative IPC: 2.83446 (Simulation time: 0 hr 4 min 56 sec) 
Heartbeat CPU 0 instructions: 50000003 cycles: 17657499 heartbeat IPC: 2.82052 cumulative IPC: 2.83166 (Simulation time: 0 hr 6 min 10 sec) 

Warmup complete CPU 0 instructions: 50000003 cycles: 17657499 (Simulation time: 0 hr 6 min 10 sec) 

Heartbeat CPU 0 instructions: 60000002 cycles: 23987261 heartbeat IPC: 1.57984 cumulative IPC: 1.57984 (Simulation time: 0 hr 7 min 31 sec) 
Heartbeat CPU 0 instructions: 70000001 cycles: 30113454 heartbeat IPC: 1.63233 cumulative IPC: 1.60566 (Simulation time: 0 hr 8 min 53 sec) 
Heartbeat CPU 0 instructions: 80000001 cycles: 37065918 heartbeat IPC: 1.43834 cumulative IPC: 1.54572 (Simulation time: 0 hr 10 min 17 sec) 
Heartbeat CPU 0 instructions: 90000000 cycles: 46029338 heartbeat IPC: 1.11565 cumulative IPC: 1.40985 (Simulation time: 0 hr 11 min 32 sec) 
Heartbeat CPU 0 instructions: 100000003 cycles: 56939183 heartbeat IPC: 0.916604 cumulative IPC: 1.27286 (Simulation time: 0 hr 12 min 59 sec) 
Finished CPU 0 instructions: 50000000 cycles: 39281684 cumulative IPC: 1.27286 (Simulation time: 0 hr 12 min 59 sec) 

ChampSim completed all CPUs

Region of Interest Statistics

CPU 0 cumulative IPC: 1.27286 instructions: 50000000 cycles: 39281684
L1D TOTAL     ACCESS:   17683460  HIT:   17187476  MISS:     495984
L1D LOAD      ACCESS:    6062793  HIT:    5936421  MISS:     126372
L1D RFO       ACCESS:    5947076  HIT:    5712654  MISS:     234422
L1D PREFETCH  ACCESS:    5673591  HIT:    5538401  MISS:     135190
L1D WRITEBACK ACCESS:          0  HIT:          0  MISS:          0
L1D PREFETCH  REQUESTED:    6104603  ISSUED:    5963055  USEFUL:      67298  USELESS:      67938
L1D AVERAGE MISS LATENCY: 124.498 cycles
L1I TOTAL     ACCESS:   19929389  HIT:   18007016  MISS:    1922373
L1I LOAD      ACCESS:    9497987  HIT:    9382294  MISS:     115693
L1I RFO       ACCESS:          0  HIT:          0  MISS:          0
L1I PREFETCH  ACCESS:   10431402  HIT:    8624722  MISS:    1806680
L1I WRITEBACK ACCESS:          0  HIT:          0  MISS:          0
L1I PREFETCH  REQUESTED:   10535998  ISSUED:   10530290  USEFUL:     691389  USELESS:    1115324
L1I AVERAGE MISS LATENCY: 17.8333 cycles
L2C TOTAL     ACCESS:    3302087  HIT:    2865327  MISS:     436760
L2C LOAD      ACCESS:     149106  HIT:     106883  MISS:      42223
L2C RFO       ACCESS:     232263  HIT:      23304  MISS:     208959
L2C PREFETCH  ACCESS:    2651427  HIT:    2467945  MISS:     183482
L2C WRITEBACK ACCESS:     269291  HIT:     267195  MISS:       2096
L2C PREFETCH  REQUESTED:    1410267  ISSUED:    1410165  USEFUL:      12739  USELESS:     170776
L2C AVERAGE MISS LATENCY: 161.62 cycles
LLC TOTAL     ACCESS:    1037884  HIT:     744133  MISS:     293751
LLC LOAD      ACCESS:      42154  HIT:      30821  MISS:      11333
LLC RFO       ACCESS:     208949  HIT:      35634  MISS:     173315
LLC PREFETCH  ACCESS:     558756  HIT:     450040  MISS:     108716
LLC WRITEBACK ACCESS:     228025  HIT:     227638  MISS:        387
LLC PREFETCH  REQUESTED:          0  ISSUED:          0  USEFUL:       8613  USELESS:     100516
LLC AVERAGE MISS LATENCY: 235.875 cycles
Major fault: 0 Minor fault: 5053
CPU 0 L1D next line prefetcher final stats

DRAM Statistics
 CHANNEL 0
 RQ ROW_BUFFER_HIT:     102210  ROW_BUFFER_MISS:     191148
 DBUS_CONGESTED:     258727
 WQ ROW_BUFFER_HIT:      58486  ROW_BUFFER_MISS:     121009  FULL:          0

 AVG_CONGESTED_CYCLE: 6

CPU 0 Branch Prediction Accuracy: 98.6631% MPKI: 2.66884 Average ROB Occupancy at Mispredict: 75.7829

Branch types
NOT_BRANCH: 40018769 80.0375%
BRANCH_DIRECT_JUMP: 370861 0.741722%
BRANCH_INDIRECT: 83252 0.166504%
BRANCH_CONDITIONAL: 7877435 15.7549%
BRANCH_DIRECT_CALL: 722315 1.44463%
BRANCH_INDIRECT_CALL: 101901 0.203802%
BRANCH_RETURN: 825355 1.65071%
BRANCH_OTHER: 0 0%

