Initialize SIGNATURE TABLE
ST_SET: 1
ST_WAY: 256
ST_TAG_BIT: 16
ST_TAG_MASK: ffff

Initialize PATTERN TABLE
PT_SET: 512
PT_WAY: 4
SIG_DELTA_BIT: 7
C_SIG_BIT: 4
C_DELTA_BIT: 4

Initialize PREFETCH FILTER
FILTER_SET: 1024

*** ChampSim Multicore Out-of-Order Simulator ***

Warmup Instructions: 50000000
Simulation Instructions: 50000000
Number of CPUs: 1
LLC sets: 2048
LLC ways: 16
Off-chip DRAM Size: 4096 MB Channels: 1 Width: 64-bit Data Rate: 3200 MT/s

CPU 0 runs /home/sankara2004/240C/hw1/ChampSim/ipc1_public/client_006.champsimtrace.xz
CPU 0 L1I next line prefetcher
CPU 0 L1D next line prefetcher
Heartbeat CPU 0 instructions: 10000003 cycles: 4267582 heartbeat IPC: 2.34325 cumulative IPC: 2.34325 (Simulation time: 0 hr 0 min 31 sec) 
Heartbeat CPU 0 instructions: 20000000 cycles: 8307413 heartbeat IPC: 2.47535 cumulative IPC: 2.40749 (Simulation time: 0 hr 1 min 1 sec) 
Heartbeat CPU 0 instructions: 30000003 cycles: 11370395 heartbeat IPC: 3.26479 cumulative IPC: 2.63843 (Simulation time: 0 hr 1 min 26 sec) 
Heartbeat CPU 0 instructions: 40000000 cycles: 14715392 heartbeat IPC: 2.98954 cumulative IPC: 2.71824 (Simulation time: 0 hr 1 min 53 sec) 
Heartbeat CPU 0 instructions: 50000003 cycles: 18820275 heartbeat IPC: 2.43612 cumulative IPC: 2.65671 (Simulation time: 0 hr 2 min 23 sec) 

Warmup complete CPU 0 instructions: 50000003 cycles: 18820275 (Simulation time: 0 hr 2 min 23 sec) 

Heartbeat CPU 0 instructions: 60000001 cycles: 26678340 heartbeat IPC: 1.27258 cumulative IPC: 1.27258 (Simulation time: 0 hr 2 min 54 sec) 
Heartbeat CPU 0 instructions: 70000003 cycles: 36416700 heartbeat IPC: 1.02687 cumulative IPC: 1.13659 (Simulation time: 0 hr 3 min 31 sec) 
Heartbeat CPU 0 instructions: 80000002 cycles: 44769130 heartbeat IPC: 1.19726 cumulative IPC: 1.15612 (Simulation time: 0 hr 4 min 3 sec) 
Heartbeat CPU 0 instructions: 90000003 cycles: 52602864 heartbeat IPC: 1.27653 cumulative IPC: 1.18404 (Simulation time: 0 hr 4 min 33 sec) 
Heartbeat CPU 0 instructions: 100000001 cycles: 60795020 heartbeat IPC: 1.22068 cumulative IPC: 1.19119 (Simulation time: 0 hr 5 min 5 sec) 
Finished CPU 0 instructions: 50000002 cycles: 41974746 cumulative IPC: 1.19119 (Simulation time: 0 hr 5 min 5 sec) 

ChampSim completed all CPUs

Region of Interest Statistics

CPU 0 cumulative IPC: 1.19119 instructions: 50000002 cycles: 41974746
L1D TOTAL     ACCESS:   16588992  HIT:   15861808  MISS:     727184
L1D LOAD      ACCESS:    6363517  HIT:    5956810  MISS:     406707
L1D RFO       ACCESS:    4332771  HIT:    4290162  MISS:      42609
L1D PREFETCH  ACCESS:    5892704  HIT:    5614836  MISS:     277868
L1D WRITEBACK ACCESS:          0  HIT:          0  MISS:          0
L1D PREFETCH  REQUESTED:    6405281  ISSUED:    6224419  USEFUL:     116848  USELESS:     160894
L1D AVERAGE MISS LATENCY: 82.1642 cycles
L1I TOTAL     ACCESS:   10565852  HIT:    9526198  MISS:    1039654
L1I LOAD      ACCESS:    8464982  HIT:    8446141  MISS:      18841
L1I RFO       ACCESS:          0  HIT:          0  MISS:          0
L1I PREFETCH  ACCESS:    2100870  HIT:    1080057  MISS:    1020813
L1I WRITEBACK ACCESS:          0  HIT:          0  MISS:          0
L1I PREFETCH  REQUESTED:    2132738  ISSUED:    2132733  USEFUL:     768265  USELESS:     252499
L1I AVERAGE MISS LATENCY: 21.9689 cycles
L2C TOTAL     ACCESS:    2441806  HIT:    1891040  MISS:     550766
L2C LOAD      ACCESS:     349346  HIT:     111746  MISS:     237600
L2C RFO       ACCESS:      42351  HIT:      12372  MISS:      29979
L2C PREFETCH  ACCESS:    1874136  HIT:    1591733  MISS:     282403
L2C WRITEBACK ACCESS:     175973  HIT:     175189  MISS:        784
L2C PREFETCH  REQUESTED:    2990237  ISSUED:    2966741  USEFUL:      11033  USELESS:     272245
L2C AVERAGE MISS LATENCY: 116.996 cycles
LLC TOTAL     ACCESS:    1341789  HIT:     952475  MISS:     389314
LLC LOAD      ACCESS:     227968  HIT:     133718  MISS:      94250
LLC RFO       ACCESS:      29979  HIT:       5129  MISS:      24850
LLC PREFETCH  ACCESS:     949708  HIT:     680093  MISS:     269615
LLC WRITEBACK ACCESS:     134134  HIT:     133535  MISS:        599
LLC PREFETCH  REQUESTED:          0  ISSUED:          0  USEFUL:      41296  USELESS:     232152
LLC AVERAGE MISS LATENCY: 199.203 cycles
Major fault: 0 Minor fault: 10527
Prefetcher storage:
 Miss Ahead Prediction Table 73728 bytes
 I-Shadow cache 408 bytes
Touched + WorthPF tables 24576 bytes 
MMA filter 123 bytes 
FNL filter 272 bytes 
TOTAL PREFETCHER STORAGE SIZE: 99107 bytes
CPU 0 L1I next line prefetcher final stats
CPU 0 L1D next line prefetcher final stats

DRAM Statistics
 CHANNEL 0
 RQ ROW_BUFFER_HIT:     103252  ROW_BUFFER_MISS:     285446
 DBUS_CONGESTED:     228858
 WQ ROW_BUFFER_HIT:      21983  ROW_BUFFER_MISS:      92912  FULL:          0

 AVG_CONGESTED_CYCLE: 5

CPU 0 Branch Prediction Accuracy: 98.1683% MPKI: 3.13642 Average ROB Occupancy at Mispredict: 87.6062

Branch types
NOT_BRANCH: 41438057 82.8761%
BRANCH_DIRECT_JUMP: 413829 0.827658%
BRANCH_INDIRECT: 47058 0.094116%
BRANCH_CONDITIONAL: 6843835 13.6877%
BRANCH_DIRECT_CALL: 536885 1.07377%
BRANCH_INDIRECT_CALL: 90642 0.181284%
BRANCH_RETURN: 629329 1.25866%
BRANCH_OTHER: 0 0%

