Initialize SIGNATURE TABLE
ST_SET: 1
ST_WAY: 256
ST_TAG_BIT: 16
ST_TAG_MASK: ffff

Initialize PATTERN TABLE
PT_SET: 512
PT_WAY: 4
SIG_DELTA_BIT: 7
C_SIG_BIT: 4
C_DELTA_BIT: 4

Initialize PREFETCH FILTER
FILTER_SET: 1024

*** ChampSim Multicore Out-of-Order Simulator ***

Warmup Instructions: 50000000
Simulation Instructions: 50000000
Number of CPUs: 1
LLC sets: 2048
LLC ways: 16
Off-chip DRAM Size: 4096 MB Channels: 1 Width: 64-bit Data Rate: 3200 MT/s

CPU 0 runs /home/sankara2004/240C/hw1/ChampSim/ipc1_public/server_033.champsimtrace.xz
CPU 0 L1I next line prefetcher
CPU 0 L1D next line prefetcher
Heartbeat CPU 0 instructions: 10000001 cycles: 3340768 heartbeat IPC: 2.99332 cumulative IPC: 2.99332 (Simulation time: 0 hr 0 min 30 sec) 
Heartbeat CPU 0 instructions: 20000002 cycles: 6679680 heartbeat IPC: 2.99499 cumulative IPC: 2.99416 (Simulation time: 0 hr 1 min 1 sec) 
Heartbeat CPU 0 instructions: 30000001 cycles: 10008111 heartbeat IPC: 3.00442 cumulative IPC: 2.99757 (Simulation time: 0 hr 1 min 32 sec) 
Heartbeat CPU 0 instructions: 40000000 cycles: 13345473 heartbeat IPC: 2.99638 cumulative IPC: 2.99727 (Simulation time: 0 hr 2 min 2 sec) 
Heartbeat CPU 0 instructions: 50000000 cycles: 16682178 heartbeat IPC: 2.99697 cumulative IPC: 2.99721 (Simulation time: 0 hr 2 min 33 sec) 

Warmup complete CPU 0 instructions: 50000004 cycles: 16682179 (Simulation time: 0 hr 2 min 33 sec) 

Heartbeat CPU 0 instructions: 60000000 cycles: 23277137 heartbeat IPC: 1.51631 cumulative IPC: 1.51631 (Simulation time: 0 hr 3 min 10 sec) 
Heartbeat CPU 0 instructions: 70000000 cycles: 29827092 heartbeat IPC: 1.52673 cumulative IPC: 1.5215 (Simulation time: 0 hr 3 min 47 sec) 
Heartbeat CPU 0 instructions: 80000000 cycles: 37187299 heartbeat IPC: 1.35866 cumulative IPC: 1.46305 (Simulation time: 0 hr 4 min 26 sec) 
Heartbeat CPU 0 instructions: 90000003 cycles: 43845508 heartbeat IPC: 1.50191 cumulative IPC: 1.47257 (Simulation time: 0 hr 5 min 4 sec) 
Heartbeat CPU 0 instructions: 100000003 cycles: 50475300 heartbeat IPC: 1.50834 cumulative IPC: 1.47959 (Simulation time: 0 hr 5 min 41 sec) 
Finished CPU 0 instructions: 50000003 cycles: 33793122 cumulative IPC: 1.47959 (Simulation time: 0 hr 5 min 41 sec) 

ChampSim completed all CPUs

Region of Interest Statistics

CPU 0 cumulative IPC: 1.47959 instructions: 50000003 cycles: 33793122
L1D TOTAL     ACCESS:   18249709  HIT:   16767369  MISS:    1482340
L1D LOAD      ACCESS:    6148953  HIT:    5465594  MISS:     683359
L1D RFO       ACCESS:    6165255  HIT:    6015823  MISS:     149432
L1D PREFETCH  ACCESS:    5935501  HIT:    5285952  MISS:     649549
L1D WRITEBACK ACCESS:          0  HIT:          0  MISS:          0
L1D PREFETCH  REQUESTED:    6192375  ISSUED:    6072814  USEFUL:     141297  USELESS:     508258
L1D AVERAGE MISS LATENCY: 23.8781 cycles
L1I TOTAL     ACCESS:   15292949  HIT:   11149394  MISS:    4143555
L1I LOAD      ACCESS:    9638058  HIT:    9461656  MISS:     176402
L1I RFO       ACCESS:          0  HIT:          0  MISS:          0
L1I PREFETCH  ACCESS:    5654891  HIT:    1687738  MISS:    3967153
L1I WRITEBACK ACCESS:          0  HIT:          0  MISS:          0
L1I PREFETCH  REQUESTED:    5910742  ISSUED:    5910581  USEFUL:    3211497  USELESS:     755592
L1I AVERAGE MISS LATENCY: 15.1931 cycles
L2C TOTAL     ACCESS:    7474489  HIT:    7169088  MISS:     305401
L2C LOAD      ACCESS:     782083  HIT:     660238  MISS:     121845
L2C RFO       ACCESS:     148090  HIT:     127352  MISS:      20738
L2C PREFETCH  ACCESS:    6177816  HIT:    6018119  MISS:     159697
L2C WRITEBACK ACCESS:     366500  HIT:     363379  MISS:       3121
L2C PREFETCH  REQUESTED:    7258613  ISSUED:    7241324  USEFUL:      10138  USELESS:     149213
L2C AVERAGE MISS LATENCY: 51.0691 cycles
LLC TOTAL     ACCESS:    2583592  HIT:    2512953  MISS:      70639
LLC LOAD      ACCESS:     121787  HIT:     107101  MISS:      14686
LLC RFO       ACCESS:      20738  HIT:      17963  MISS:       2775
LLC PREFETCH  ACCESS:    2335887  HIT:    2283042  MISS:      52845
LLC WRITEBACK ACCESS:     105180  HIT:     104847  MISS:        333
LLC PREFETCH  REQUESTED:          0  ISSUED:          0  USEFUL:       8204  USELESS:      42535
LLC AVERAGE MISS LATENCY: 175.904 cycles
Major fault: 0 Minor fault: 2482
Prefetcher storage:
 Miss Ahead Prediction Table 73728 bytes
 I-Shadow cache 408 bytes
Touched + WorthPF tables 24576 bytes 
MMA filter 123 bytes 
FNL filter 272 bytes 
TOTAL PREFETCHER STORAGE SIZE: 99107 bytes
CPU 0 L1I next line prefetcher final stats
CPU 0 L1D next line prefetcher final stats

DRAM Statistics
 CHANNEL 0
 RQ ROW_BUFFER_HIT:      10444  ROW_BUFFER_MISS:      59856
 DBUS_CONGESTED:      30301
 WQ ROW_BUFFER_HIT:       4163  ROW_BUFFER_MISS:      18700  FULL:          0

 AVG_CONGESTED_CYCLE: 5

CPU 0 Branch Prediction Accuracy: 99.9029% MPKI: 0.19006 Average ROB Occupancy at Mispredict: 236.527

Branch types
NOT_BRANCH: 40217120 80.4342%
BRANCH_DIRECT_JUMP: 774600 1.5492%
BRANCH_INDIRECT: 108806 0.217612%
BRANCH_CONDITIONAL: 6379333 12.7587%
BRANCH_DIRECT_CALL: 1048809 2.09762%
BRANCH_INDIRECT_CALL: 211109 0.422218%
BRANCH_RETURN: 1259926 2.51985%
BRANCH_OTHER: 0 0%

