Initialize SIGNATURE TABLE
ST_SET: 1
ST_WAY: 256
ST_TAG_BIT: 16
ST_TAG_MASK: ffff

Initialize PATTERN TABLE
PT_SET: 512
PT_WAY: 4
SIG_DELTA_BIT: 7
C_SIG_BIT: 4
C_DELTA_BIT: 4

Initialize PREFETCH FILTER
FILTER_SET: 1024

*** ChampSim Multicore Out-of-Order Simulator ***

Warmup Instructions: 50000000
Simulation Instructions: 50000000
Number of CPUs: 1
LLC sets: 2048
LLC ways: 16
Off-chip DRAM Size: 4096 MB Channels: 1 Width: 64-bit Data Rate: 3200 MT/s

CPU 0 runs /home/sankara2004/240C/hw1/ChampSim/ipc1_public/server_031.champsimtrace.xz
CPU 0 L1I next line prefetcher
CPU 0 L1D next line prefetcher
Heartbeat CPU 0 instructions: 10000003 cycles: 3521483 heartbeat IPC: 2.83971 cumulative IPC: 2.83971 (Simulation time: 0 hr 0 min 31 sec) 
Heartbeat CPU 0 instructions: 20000002 cycles: 7043289 heartbeat IPC: 2.83945 cumulative IPC: 2.83958 (Simulation time: 0 hr 1 min 3 sec) 
Heartbeat CPU 0 instructions: 30000002 cycles: 10565162 heartbeat IPC: 2.8394 cumulative IPC: 2.83952 (Simulation time: 0 hr 1 min 34 sec) 
Heartbeat CPU 0 instructions: 40000003 cycles: 14082740 heartbeat IPC: 2.84287 cumulative IPC: 2.84036 (Simulation time: 0 hr 2 min 6 sec) 
Heartbeat CPU 0 instructions: 50000000 cycles: 17602352 heartbeat IPC: 2.84122 cumulative IPC: 2.84053 (Simulation time: 0 hr 2 min 37 sec) 

Warmup complete CPU 0 instructions: 50000004 cycles: 17602353 (Simulation time: 0 hr 2 min 37 sec) 

Heartbeat CPU 0 instructions: 60000001 cycles: 25171513 heartbeat IPC: 1.32115 cumulative IPC: 1.32115 (Simulation time: 0 hr 3 min 16 sec) 
Heartbeat CPU 0 instructions: 70000002 cycles: 32805874 heartbeat IPC: 1.30987 cumulative IPC: 1.31548 (Simulation time: 0 hr 3 min 56 sec) 
*** Reached end of trace for Core: 0 Repeating trace: /home/sankara2004/240C/hw1/ChampSim/ipc1_public/server_031.champsimtrace.xz
Heartbeat CPU 0 instructions: 80000000 cycles: 40293014 heartbeat IPC: 1.33562 cumulative IPC: 1.32213 (Simulation time: 0 hr 4 min 35 sec) 
Heartbeat CPU 0 instructions: 90000003 cycles: 47796315 heartbeat IPC: 1.33275 cumulative IPC: 1.32477 (Simulation time: 0 hr 5 min 15 sec) 
Heartbeat CPU 0 instructions: 100000000 cycles: 55247498 heartbeat IPC: 1.34207 cumulative IPC: 1.32819 (Simulation time: 0 hr 5 min 54 sec) 
Finished CPU 0 instructions: 50000000 cycles: 37645150 cumulative IPC: 1.32819 (Simulation time: 0 hr 5 min 54 sec) 

ChampSim completed all CPUs

Region of Interest Statistics

CPU 0 cumulative IPC: 1.32819 instructions: 50000000 cycles: 37645150
L1D TOTAL     ACCESS:   19581847  HIT:   17677415  MISS:    1904432
L1D LOAD      ACCESS:    6799932  HIT:    5924549  MISS:     875383
L1D RFO       ACCESS:    6325052  HIT:    6033207  MISS:     291845
L1D PREFETCH  ACCESS:    6456863  HIT:    5719659  MISS:     737204
L1D WRITEBACK ACCESS:          0  HIT:          0  MISS:          0
L1D PREFETCH  REQUESTED:    6861401  ISSUED:    6750196  USEFUL:     171642  USELESS:     565567
L1D AVERAGE MISS LATENCY: 22.8071 cycles
L1I TOTAL     ACCESS:   15103463  HIT:   11073280  MISS:    4030183
L1I LOAD      ACCESS:    9602140  HIT:    9298656  MISS:     303484
L1I RFO       ACCESS:          0  HIT:          0  MISS:          0
L1I PREFETCH  ACCESS:    5501323  HIT:    1774624  MISS:    3726699
L1I WRITEBACK ACCESS:          0  HIT:          0  MISS:          0
L1I PREFETCH  REQUESTED:    5878589  ISSUED:    5878569  USEFUL:    2795576  USELESS:     931134
L1I AVERAGE MISS LATENCY: 17.6007 cycles
L2C TOTAL     ACCESS:    8174975  HIT:    7444048  MISS:     730927
L2C LOAD      ACCESS:    1009214  HIT:     868931  MISS:     140283
L2C RFO       ACCESS:     289496  HIT:     241154  MISS:      48342
L2C PREFETCH  ACCESS:    6259348  HIT:    5718908  MISS:     540440
L2C WRITEBACK ACCESS:     616917  HIT:     615055  MISS:       1862
L2C PREFETCH  REQUESTED:    7924845  ISSUED:    7899722  USEFUL:       9848  USELESS:     529885
L2C AVERAGE MISS LATENCY: 43.8672 cycles
LLC TOTAL     ACCESS:    2848062  HIT:    2764215  MISS:      83847
LLC LOAD      ACCESS:     140239  HIT:     121347  MISS:      18892
LLC RFO       ACCESS:      48331  HIT:      44183  MISS:       4148
LLC PREFETCH  ACCESS:    2571291  HIT:    2511121  MISS:      60170
LLC WRITEBACK ACCESS:      88201  HIT:      87564  MISS:        637
LLC PREFETCH  REQUESTED:          0  ISSUED:          0  USEFUL:       2832  USELESS:      57835
LLC AVERAGE MISS LATENCY: 162.072 cycles
Major fault: 0 Minor fault: 6042
Prefetcher storage:
 Miss Ahead Prediction Table 73728 bytes
 I-Shadow cache 408 bytes
Touched + WorthPF tables 24576 bytes 
MMA filter 123 bytes 
FNL filter 272 bytes 
TOTAL PREFETCHER STORAGE SIZE: 99107 bytes
CPU 0 L1I next line prefetcher final stats
CPU 0 L1D next line prefetcher final stats

DRAM Statistics
 CHANNEL 0
 RQ ROW_BUFFER_HIT:      26021  ROW_BUFFER_MISS:      57186
 DBUS_CONGESTED:      32719
 WQ ROW_BUFFER_HIT:        906  ROW_BUFFER_MISS:       5003  FULL:          0

 AVG_CONGESTED_CYCLE: 4

CPU 0 Branch Prediction Accuracy: 99.6894% MPKI: 0.58048 Average ROB Occupancy at Mispredict: 140.134

Branch types
NOT_BRANCH: 40655607 81.3112%
BRANCH_DIRECT_JUMP: 546483 1.09297%
BRANCH_INDIRECT: 172433 0.344866%
BRANCH_CONDITIONAL: 6207579 12.4152%
BRANCH_DIRECT_CALL: 1018498 2.037%
BRANCH_INDIRECT_CALL: 190373 0.380746%
BRANCH_RETURN: 1208855 2.41771%
BRANCH_OTHER: 0 0%

