Initialize SIGNATURE TABLE
ST_SET: 1
ST_WAY: 256
ST_TAG_BIT: 16
ST_TAG_MASK: ffff

Initialize PATTERN TABLE
PT_SET: 512
PT_WAY: 4
SIG_DELTA_BIT: 7
C_SIG_BIT: 4
C_DELTA_BIT: 4

Initialize PREFETCH FILTER
FILTER_SET: 1024

*** ChampSim Multicore Out-of-Order Simulator ***

Warmup Instructions: 50000000
Simulation Instructions: 50000000
Number of CPUs: 1
LLC sets: 2048
LLC ways: 16
Off-chip DRAM Size: 4096 MB Channels: 1 Width: 64-bit Data Rate: 3200 MT/s

CPU 0 runs /home/sankara2004/240C/hw1/ChampSim/ipc1_public/server_011.champsimtrace.xz
CPU 0 L1I next line prefetcher
CPU 0 L1D next line prefetcher
Heartbeat CPU 0 instructions: 10000002 cycles: 3202604 heartbeat IPC: 3.12246 cumulative IPC: 3.12246 (Simulation time: 0 hr 0 min 28 sec) 
Heartbeat CPU 0 instructions: 20000001 cycles: 6410065 heartbeat IPC: 3.11773 cumulative IPC: 3.12009 (Simulation time: 0 hr 0 min 57 sec) 
Heartbeat CPU 0 instructions: 30000001 cycles: 9662129 heartbeat IPC: 3.07497 cumulative IPC: 3.10491 (Simulation time: 0 hr 1 min 26 sec) 
Heartbeat CPU 0 instructions: 40000003 cycles: 12861448 heartbeat IPC: 3.12567 cumulative IPC: 3.11007 (Simulation time: 0 hr 1 min 54 sec) 
Heartbeat CPU 0 instructions: 50000000 cycles: 16068204 heartbeat IPC: 3.11842 cumulative IPC: 3.11174 (Simulation time: 0 hr 2 min 23 sec) 

Warmup complete CPU 0 instructions: 50000004 cycles: 16068205 (Simulation time: 0 hr 2 min 23 sec) 

Heartbeat CPU 0 instructions: 60000002 cycles: 23526671 heartbeat IPC: 1.34076 cumulative IPC: 1.34076 (Simulation time: 0 hr 2 min 57 sec) 
Heartbeat CPU 0 instructions: 70000001 cycles: 31404518 heartbeat IPC: 1.26938 cumulative IPC: 1.30409 (Simulation time: 0 hr 3 min 32 sec) 
Heartbeat CPU 0 instructions: 80000003 cycles: 40100085 heartbeat IPC: 1.15001 cumulative IPC: 1.24834 (Simulation time: 0 hr 4 min 5 sec) 
Heartbeat CPU 0 instructions: 90000001 cycles: 47714586 heartbeat IPC: 1.31328 cumulative IPC: 1.26397 (Simulation time: 0 hr 4 min 38 sec) 
Heartbeat CPU 0 instructions: 100000000 cycles: 55151931 heartbeat IPC: 1.34457 cumulative IPC: 1.2793 (Simulation time: 0 hr 5 min 12 sec) 
Finished CPU 0 instructions: 50000003 cycles: 39083738 cumulative IPC: 1.2793 (Simulation time: 0 hr 5 min 12 sec) 

ChampSim completed all CPUs

Region of Interest Statistics

CPU 0 cumulative IPC: 1.2793 instructions: 50000003 cycles: 39083738
L1D TOTAL     ACCESS:   18210600  HIT:   17179141  MISS:    1031459
L1D LOAD      ACCESS:    6806996  HIT:    6325451  MISS:     481545
L1D RFO       ACCESS:    4835095  HIT:    4753069  MISS:      82026
L1D PREFETCH  ACCESS:    6568509  HIT:    6100621  MISS:     467888
L1D WRITEBACK ACCESS:          0  HIT:          0  MISS:          0
L1D PREFETCH  REQUESTED:    6844572  ISSUED:    6752226  USEFUL:     137522  USELESS:     330362
L1D AVERAGE MISS LATENCY: 40.7876 cycles
L1I TOTAL     ACCESS:   12214507  HIT:   10323397  MISS:    1891110
L1I LOAD      ACCESS:    8853255  HIT:    8648628  MISS:     204627
L1I RFO       ACCESS:          0  HIT:          0  MISS:          0
L1I PREFETCH  ACCESS:    3361252  HIT:    1674769  MISS:    1686483
L1I WRITEBACK ACCESS:          0  HIT:          0  MISS:          0
L1I PREFETCH  REQUESTED:    3555909  ISSUED:    3555629  USEFUL:    1123089  USELESS:     563361
L1I AVERAGE MISS LATENCY: 29.6456 cycles
L2C TOTAL     ACCESS:    3713890  HIT:    2560569  MISS:    1153321
L2C LOAD      ACCESS:     560912  HIT:     312901  MISS:     248011
L2C RFO       ACCESS:      80223  HIT:      34804  MISS:      45419
L2C PREFETCH  ACCESS:    2804620  HIT:    1946172  MISS:     858448
L2C WRITEBACK ACCESS:     268135  HIT:     266692  MISS:       1443
L2C PREFETCH  REQUESTED:    3180975  ISSUED:    3178069  USEFUL:      32652  USELESS:     825923
L2C AVERAGE MISS LATENCY: 51.7848 cycles
LLC TOTAL     ACCESS:    2160645  HIT:    1984677  MISS:     175968
LLC LOAD      ACCESS:     247906  HIT:     221387  MISS:      26519
LLC RFO       ACCESS:      45402  HIT:      32145  MISS:      13257
LLC PREFETCH  ACCESS:    1714771  HIT:    1578872  MISS:     135899
LLC WRITEBACK ACCESS:     152566  HIT:     152273  MISS:        293
LLC PREFETCH  REQUESTED:          0  ISSUED:          0  USEFUL:      13891  USELESS:     119769
LLC AVERAGE MISS LATENCY: 178.077 cycles
Major fault: 0 Minor fault: 6976
Prefetcher storage:
 Miss Ahead Prediction Table 73728 bytes
 I-Shadow cache 408 bytes
Touched + WorthPF tables 24576 bytes 
MMA filter 123 bytes 
FNL filter 272 bytes 
TOTAL PREFETCHER STORAGE SIZE: 99107 bytes
CPU 0 L1I next line prefetcher final stats
CPU 0 L1D next line prefetcher final stats

DRAM Statistics
 CHANNEL 0
 RQ ROW_BUFFER_HIT:      34738  ROW_BUFFER_MISS:     140911
 DBUS_CONGESTED:      82099
 WQ ROW_BUFFER_HIT:      11977  ROW_BUFFER_MISS:      49778  FULL:          0

 AVG_CONGESTED_CYCLE: 5

CPU 0 Branch Prediction Accuracy: 97.5565% MPKI: 4.59006 Average ROB Occupancy at Mispredict: 61.0369

Branch types
NOT_BRANCH: 40607199 81.2144%
BRANCH_DIRECT_JUMP: 451601 0.903202%
BRANCH_INDIRECT: 151580 0.30316%
BRANCH_CONDITIONAL: 7041635 14.0833%
BRANCH_DIRECT_CALL: 647827 1.29565%
BRANCH_INDIRECT_CALL: 211373 0.422746%
BRANCH_RETURN: 888439 1.77688%
BRANCH_OTHER: 0 0%

