Initialize SIGNATURE TABLE
ST_SET: 1
ST_WAY: 256
ST_TAG_BIT: 16
ST_TAG_MASK: ffff

Initialize PATTERN TABLE
PT_SET: 512
PT_WAY: 4
SIG_DELTA_BIT: 7
C_SIG_BIT: 4
C_DELTA_BIT: 4

Initialize PREFETCH FILTER
FILTER_SET: 1024

*** ChampSim Multicore Out-of-Order Simulator ***

Warmup Instructions: 50000000
Simulation Instructions: 50000000
Number of CPUs: 1
LLC sets: 2048
LLC ways: 16
Off-chip DRAM Size: 4096 MB Channels: 1 Width: 64-bit Data Rate: 3200 MT/s

CPU 0 runs /home/sankara2004/240C/hw1/ChampSim/ipc1_public/server_023.champsimtrace.xz
CPU 0 L1I next line prefetcher
CPU 0 L1D next line prefetcher
Heartbeat CPU 0 instructions: 10000000 cycles: 3501483 heartbeat IPC: 2.85593 cumulative IPC: 2.85593 (Simulation time: 0 hr 0 min 31 sec) 
Heartbeat CPU 0 instructions: 20000000 cycles: 7002733 heartbeat IPC: 2.85612 cumulative IPC: 2.85603 (Simulation time: 0 hr 1 min 2 sec) 
Heartbeat CPU 0 instructions: 30000001 cycles: 10497561 heartbeat IPC: 2.86137 cumulative IPC: 2.85781 (Simulation time: 0 hr 1 min 32 sec) 
Heartbeat CPU 0 instructions: 40000003 cycles: 13998604 heartbeat IPC: 2.85629 cumulative IPC: 2.85743 (Simulation time: 0 hr 2 min 3 sec) 
Heartbeat CPU 0 instructions: 50000001 cycles: 17501000 heartbeat IPC: 2.85519 cumulative IPC: 2.85698 (Simulation time: 0 hr 2 min 34 sec) 

Warmup complete CPU 0 instructions: 50000001 cycles: 17501000 (Simulation time: 0 hr 2 min 34 sec) 

Heartbeat CPU 0 instructions: 60000002 cycles: 24365037 heartbeat IPC: 1.45687 cumulative IPC: 1.45687 (Simulation time: 0 hr 3 min 10 sec) 
Heartbeat CPU 0 instructions: 70000002 cycles: 31441567 heartbeat IPC: 1.41312 cumulative IPC: 1.43466 (Simulation time: 0 hr 3 min 47 sec) 
Heartbeat CPU 0 instructions: 80000000 cycles: 38426957 heartbeat IPC: 1.43156 cumulative IPC: 1.43363 (Simulation time: 0 hr 4 min 24 sec) 
Heartbeat CPU 0 instructions: 90000000 cycles: 45432269 heartbeat IPC: 1.42749 cumulative IPC: 1.43209 (Simulation time: 0 hr 4 min 58 sec) 
Heartbeat CPU 0 instructions: 100000001 cycles: 52399002 heartbeat IPC: 1.43539 cumulative IPC: 1.43275 (Simulation time: 0 hr 5 min 35 sec) 
Finished CPU 0 instructions: 50000000 cycles: 34898002 cumulative IPC: 1.43275 (Simulation time: 0 hr 5 min 35 sec) 

ChampSim completed all CPUs

Region of Interest Statistics

CPU 0 cumulative IPC: 1.43275 instructions: 50000000 cycles: 34898002
L1D TOTAL     ACCESS:   19480142  HIT:   18013064  MISS:    1467078
L1D LOAD      ACCESS:    6910010  HIT:    6248051  MISS:     661959
L1D RFO       ACCESS:    5981841  HIT:    5720372  MISS:     261469
L1D PREFETCH  ACCESS:    6588291  HIT:    6044641  MISS:     543650
L1D WRITEBACK ACCESS:          0  HIT:          0  MISS:          0
L1D PREFETCH  REQUESTED:    6961083  ISSUED:    6841427  USEFUL:     128976  USELESS:     414682
L1D AVERAGE MISS LATENCY: 25.0594 cycles
L1I TOTAL     ACCESS:   14103184  HIT:   10585469  MISS:    3517715
L1I LOAD      ACCESS:    9362767  HIT:    9071654  MISS:     291113
L1I RFO       ACCESS:          0  HIT:          0  MISS:          0
L1I PREFETCH  ACCESS:    4740417  HIT:    1513815  MISS:    3226602
L1I WRITEBACK ACCESS:          0  HIT:          0  MISS:          0
L1I PREFETCH  REQUESTED:    5063181  ISSUED:    5061022  USEFUL:    2226416  USELESS:    1000214
L1I AVERAGE MISS LATENCY: 17.9761 cycles
L2C TOTAL     ACCESS:    6722458  HIT:    5960212  MISS:     762246
L2C LOAD      ACCESS:     802175  HIT:     644523  MISS:     157652
L2C RFO       ACCESS:     259371  HIT:     163419  MISS:      95952
L2C PREFETCH  ACCESS:    5161616  HIT:    4655371  MISS:     506245
L2C WRITEBACK ACCESS:     499296  HIT:     496899  MISS:       2397
L2C PREFETCH  REQUESTED:    6371667  ISSUED:    6363538  USEFUL:      21592  USELESS:     484515
L2C AVERAGE MISS LATENCY: 41.6563 cycles
LLC TOTAL     ACCESS:    2325825  HIT:    2275710  MISS:      50115
LLC LOAD      ACCESS:     157390  HIT:     151180  MISS:       6210
LLC RFO       ACCESS:      95918  HIT:      78132  MISS:      17786
LLC PREFETCH  ACCESS:    1919132  HIT:    1893273  MISS:      25859
LLC WRITEBACK ACCESS:     153385  HIT:     153125  MISS:        260
LLC PREFETCH  REQUESTED:          0  ISSUED:          0  USEFUL:       2663  USELESS:      22444
LLC AVERAGE MISS LATENCY: 183.641 cycles
Major fault: 0 Minor fault: 2767
Prefetcher storage:
 Miss Ahead Prediction Table 73728 bytes
 I-Shadow cache 408 bytes
Touched + WorthPF tables 24576 bytes 
MMA filter 123 bytes 
FNL filter 272 bytes 
TOTAL PREFETCHER STORAGE SIZE: 99107 bytes
CPU 0 L1I next line prefetcher final stats
CPU 0 L1D next line prefetcher final stats

DRAM Statistics
 CHANNEL 0
 RQ ROW_BUFFER_HIT:      14967  ROW_BUFFER_MISS:      34871
 DBUS_CONGESTED:      33666
 WQ ROW_BUFFER_HIT:       2467  ROW_BUFFER_MISS:      19546  FULL:          0

 AVG_CONGESTED_CYCLE: 6

CPU 0 Branch Prediction Accuracy: 99.6798% MPKI: 0.58608 Average ROB Occupancy at Mispredict: 138.116

Branch types
NOT_BRANCH: 40848329 81.6967%
BRANCH_DIRECT_JUMP: 548372 1.09674%
BRANCH_INDIRECT: 189802 0.379604%
BRANCH_CONDITIONAL: 6372772 12.7455%
BRANCH_DIRECT_CALL: 862207 1.72441%
BRANCH_INDIRECT_CALL: 158149 0.316298%
BRANCH_RETURN: 1020345 2.04069%
BRANCH_OTHER: 0 0%

