Initialize SIGNATURE TABLE
ST_SET: 1
ST_WAY: 256
ST_TAG_BIT: 16
ST_TAG_MASK: ffff

Initialize PATTERN TABLE
PT_SET: 512
PT_WAY: 4
SIG_DELTA_BIT: 7
C_SIG_BIT: 4
C_DELTA_BIT: 4

Initialize PREFETCH FILTER
FILTER_SET: 1024

*** ChampSim Multicore Out-of-Order Simulator ***

Warmup Instructions: 50000000
Simulation Instructions: 50000000
Number of CPUs: 1
LLC sets: 2048
LLC ways: 16
Off-chip DRAM Size: 4096 MB Channels: 1 Width: 64-bit Data Rate: 3200 MT/s

CPU 0 runs /home/sankara2004/240C/hw1/ChampSim/ipc1_public/server_027.champsimtrace.xz
CPU 0 L1D next line prefetcher
Heartbeat CPU 0 instructions: 10000001 cycles: 3540146 heartbeat IPC: 2.82474 cumulative IPC: 2.82474 (Simulation time: 0 hr 1 min 12 sec) 
Heartbeat CPU 0 instructions: 20000001 cycles: 7085357 heartbeat IPC: 2.82071 cumulative IPC: 2.82272 (Simulation time: 0 hr 2 min 24 sec) 
Heartbeat CPU 0 instructions: 30000002 cycles: 10625898 heartbeat IPC: 2.82443 cumulative IPC: 2.82329 (Simulation time: 0 hr 3 min 35 sec) 
Heartbeat CPU 0 instructions: 40000000 cycles: 14171474 heartbeat IPC: 2.82042 cumulative IPC: 2.82257 (Simulation time: 0 hr 4 min 47 sec) 
Heartbeat CPU 0 instructions: 50000001 cycles: 17709194 heartbeat IPC: 2.82668 cumulative IPC: 2.82339 (Simulation time: 0 hr 6 min 0 sec) 

Warmup complete CPU 0 instructions: 50000001 cycles: 17709194 (Simulation time: 0 hr 6 min 0 sec) 

Heartbeat CPU 0 instructions: 60000002 cycles: 24677854 heartbeat IPC: 1.435 cumulative IPC: 1.435 (Simulation time: 0 hr 7 min 27 sec) 
Heartbeat CPU 0 instructions: 70000003 cycles: 31598995 heartbeat IPC: 1.44485 cumulative IPC: 1.43991 (Simulation time: 0 hr 8 min 53 sec) 
Heartbeat CPU 0 instructions: 80000002 cycles: 38530229 heartbeat IPC: 1.44274 cumulative IPC: 1.44085 (Simulation time: 0 hr 10 min 19 sec) 
Heartbeat CPU 0 instructions: 90000001 cycles: 45542905 heartbeat IPC: 1.42599 cumulative IPC: 1.43711 (Simulation time: 0 hr 11 min 45 sec) 
Heartbeat CPU 0 instructions: 100000002 cycles: 52445156 heartbeat IPC: 1.4488 cumulative IPC: 1.43943 (Simulation time: 0 hr 13 min 12 sec) 
Finished CPU 0 instructions: 50000001 cycles: 34735962 cumulative IPC: 1.43943 (Simulation time: 0 hr 13 min 12 sec) 

ChampSim completed all CPUs

Region of Interest Statistics

CPU 0 cumulative IPC: 1.43943 instructions: 50000001 cycles: 34735962
L1D TOTAL     ACCESS:   19947775  HIT:   18346094  MISS:    1601681
L1D LOAD      ACCESS:    6970206  HIT:    6277201  MISS:     693005
L1D RFO       ACCESS:    6295490  HIT:    6010037  MISS:     285453
L1D PREFETCH  ACCESS:    6682079  HIT:    6058856  MISS:     623223
L1D WRITEBACK ACCESS:          0  HIT:          0  MISS:          0
L1D PREFETCH  REQUESTED:    7014925  ISSUED:    6888433  USEFUL:     148508  USELESS:     474726
L1D AVERAGE MISS LATENCY: 24.9388 cycles
L1I TOTAL     ACCESS:   24199716  HIT:   18104429  MISS:    6095287
L1I LOAD      ACCESS:    9556283  HIT:    9438567  MISS:     117716
L1I RFO       ACCESS:          0  HIT:          0  MISS:          0
L1I PREFETCH  ACCESS:   14643433  HIT:    8665862  MISS:    5977571
L1I WRITEBACK ACCESS:          0  HIT:          0  MISS:          0
L1I PREFETCH  REQUESTED:   14768136  ISSUED:   14739332  USEFUL:    2894511  USELESS:    3083005
L1I AVERAGE MISS LATENCY: 16.7633 cycles
L2C TOTAL     ACCESS:   10410368  HIT:    9516339  MISS:     894029
L2C LOAD      ACCESS:     715667  HIT:     552649  MISS:     163018
L2C RFO       ACCESS:     283669  HIT:     186198  MISS:      97471
L2C PREFETCH  ACCESS:    8851764  HIT:    8224239  MISS:     627525
L2C WRITEBACK ACCESS:     559268  HIT:     553253  MISS:       6015
L2C PREFETCH  REQUESTED:    5217806  ISSUED:    5207441  USEFUL:      18223  USELESS:     608364
L2C AVERAGE MISS LATENCY: 36.4593 cycles
LLC TOTAL     ACCESS:    2408030  HIT:    2376075  MISS:      31955
LLC LOAD      ACCESS:     162863  HIT:     159734  MISS:       3129
LLC RFO       ACCESS:      97462  HIT:      83495  MISS:      13967
LLC PREFETCH  ACCESS:    1979218  HIT:    1964507  MISS:      14711
LLC WRITEBACK ACCESS:     168487  HIT:     168339  MISS:        148
LLC PREFETCH  REQUESTED:          0  ISSUED:          0  USEFUL:       1055  USELESS:      13134
LLC AVERAGE MISS LATENCY: 189.388 cycles
Major fault: 0 Minor fault: 2496
CPU 0 L1D next line prefetcher final stats

DRAM Statistics
 CHANNEL 0
 RQ ROW_BUFFER_HIT:      10688  ROW_BUFFER_MISS:      21118
 DBUS_CONGESTED:      22337
 WQ ROW_BUFFER_HIT:       1520  ROW_BUFFER_MISS:      14623  FULL:          0

 AVG_CONGESTED_CYCLE: 6

CPU 0 Branch Prediction Accuracy: 99.8082% MPKI: 0.35064 Average ROB Occupancy at Mispredict: 187.852

Branch types
NOT_BRANCH: 40857513 81.715%
BRANCH_DIRECT_JUMP: 526635 1.05327%
BRANCH_INDIRECT: 205902 0.411804%
BRANCH_CONDITIONAL: 6184050 12.3681%
BRANCH_DIRECT_CALL: 938468 1.87694%
BRANCH_INDIRECT_CALL: 174486 0.348972%
BRANCH_RETURN: 1112959 2.22592%
BRANCH_OTHER: 0 0%

