Initialize SIGNATURE TABLE
ST_SET: 1
ST_WAY: 256
ST_TAG_BIT: 16
ST_TAG_MASK: ffff

Initialize PATTERN TABLE
PT_SET: 512
PT_WAY: 4
SIG_DELTA_BIT: 7
C_SIG_BIT: 4
C_DELTA_BIT: 4

Initialize PREFETCH FILTER
FILTER_SET: 1024

*** ChampSim Multicore Out-of-Order Simulator ***

Warmup Instructions: 50000000
Simulation Instructions: 50000000
Number of CPUs: 1
LLC sets: 2048
LLC ways: 16
Off-chip DRAM Size: 4096 MB Channels: 1 Width: 64-bit Data Rate: 3200 MT/s

CPU 0 runs /home/sankara2004/240C/hw1/ChampSim/ipc1_public/server_031.champsimtrace.xz
CPU 0 L1D next line prefetcher
Heartbeat CPU 0 instructions: 10000003 cycles: 3536537 heartbeat IPC: 2.82763 cumulative IPC: 2.82763 (Simulation time: 0 hr 1 min 18 sec) 
Heartbeat CPU 0 instructions: 20000002 cycles: 7069786 heartbeat IPC: 2.83026 cumulative IPC: 2.82894 (Simulation time: 0 hr 2 min 36 sec) 
Heartbeat CPU 0 instructions: 30000002 cycles: 10604133 heartbeat IPC: 2.82938 cumulative IPC: 2.82909 (Simulation time: 0 hr 3 min 56 sec) 
Heartbeat CPU 0 instructions: 40000003 cycles: 14135872 heartbeat IPC: 2.83147 cumulative IPC: 2.82968 (Simulation time: 0 hr 5 min 14 sec) 
Heartbeat CPU 0 instructions: 50000001 cycles: 17669682 heartbeat IPC: 2.82981 cumulative IPC: 2.82971 (Simulation time: 0 hr 6 min 33 sec) 

Warmup complete CPU 0 instructions: 50000001 cycles: 17669682 (Simulation time: 0 hr 6 min 33 sec) 

Heartbeat CPU 0 instructions: 60000001 cycles: 25254250 heartbeat IPC: 1.31847 cumulative IPC: 1.31847 (Simulation time: 0 hr 8 min 4 sec) 
Heartbeat CPU 0 instructions: 70000002 cycles: 32880592 heartbeat IPC: 1.31124 cumulative IPC: 1.31485 (Simulation time: 0 hr 9 min 32 sec) 
