Initialize SIGNATURE TABLE
ST_SET: 1
ST_WAY: 256
ST_TAG_BIT: 16
ST_TAG_MASK: ffff

Initialize PATTERN TABLE
PT_SET: 512
PT_WAY: 4
SIG_DELTA_BIT: 7
C_SIG_BIT: 4
C_DELTA_BIT: 4

Initialize PREFETCH FILTER
FILTER_SET: 1024

*** ChampSim Multicore Out-of-Order Simulator ***

Warmup Instructions: 50000000
Simulation Instructions: 50000000
Number of CPUs: 1
LLC sets: 2048
LLC ways: 16
Off-chip DRAM Size: 4096 MB Channels: 1 Width: 64-bit Data Rate: 3200 MT/s

CPU 0 runs /home/sankara2004/240C/hw1/ChampSim/ipc1_public/server_009.champsimtrace.xz
CPU 0 L1I next line prefetcher
CPU 0 L1D next line prefetcher
Heartbeat CPU 0 instructions: 10000003 cycles: 3196396 heartbeat IPC: 3.12852 cumulative IPC: 3.12852 (Simulation time: 0 hr 0 min 28 sec) 
Heartbeat CPU 0 instructions: 20000001 cycles: 6385859 heartbeat IPC: 3.13532 cumulative IPC: 3.13192 (Simulation time: 0 hr 0 min 56 sec) 
Heartbeat CPU 0 instructions: 30000002 cycles: 9590219 heartbeat IPC: 3.12075 cumulative IPC: 3.12819 (Simulation time: 0 hr 1 min 24 sec) 
Heartbeat CPU 0 instructions: 40000003 cycles: 12791608 heartbeat IPC: 3.12364 cumulative IPC: 3.12705 (Simulation time: 0 hr 1 min 52 sec) 
Heartbeat CPU 0 instructions: 50000000 cycles: 16049534 heartbeat IPC: 3.06944 cumulative IPC: 3.11536 (Simulation time: 0 hr 2 min 20 sec) 

Warmup complete CPU 0 instructions: 50000004 cycles: 16049535 (Simulation time: 0 hr 2 min 20 sec) 

Heartbeat CPU 0 instructions: 60000002 cycles: 31712536 heartbeat IPC: 0.638447 cumulative IPC: 0.638447 (Simulation time: 0 hr 3 min 14 sec) 
Heartbeat CPU 0 instructions: 70000003 cycles: 52762448 heartbeat IPC: 0.475061 cumulative IPC: 0.544767 (Simulation time: 0 hr 4 min 21 sec) 
Heartbeat CPU 0 instructions: 80000000 cycles: 59924181 heartbeat IPC: 1.39631 cumulative IPC: 0.683766 (Simulation time: 0 hr 4 min 54 sec) 
Heartbeat CPU 0 instructions: 90000001 cycles: 67218138 heartbeat IPC: 1.371 cumulative IPC: 0.781729 (Simulation time: 0 hr 5 min 28 sec) 
Heartbeat CPU 0 instructions: 100000003 cycles: 74433882 heartbeat IPC: 1.38586 cumulative IPC: 0.856394 (Simulation time: 0 hr 6 min 2 sec) 
Finished CPU 0 instructions: 50000003 cycles: 58384348 cumulative IPC: 0.856394 (Simulation time: 0 hr 6 min 2 sec) 

ChampSim completed all CPUs

Region of Interest Statistics

CPU 0 cumulative IPC: 0.856394 instructions: 50000003 cycles: 58384348
L1D TOTAL     ACCESS:   21632075  HIT:   17052482  MISS:    4579593
L1D LOAD      ACCESS:    8632075  HIT:    6351437  MISS:    2280638
L1D RFO       ACCESS:    4581430  HIT:    4476938  MISS:     104492
L1D PREFETCH  ACCESS:    8418570  HIT:    6224107  MISS:    2194463
L1D WRITEBACK ACCESS:          0  HIT:          0  MISS:          0
L1D PREFETCH  REQUESTED:    8665047  ISSUED:    8568137  USEFUL:     105936  USELESS:    2088526
L1D AVERAGE MISS LATENCY: 20.3766 cycles
L1I TOTAL     ACCESS:   13456260  HIT:   11847255  MISS:    1609005
L1I LOAD      ACCESS:   10744474  HIT:   10585218  MISS:     159256
L1I RFO       ACCESS:          0  HIT:          0  MISS:          0
L1I PREFETCH  ACCESS:    2711786  HIT:    1262037  MISS:    1449749
L1I WRITEBACK ACCESS:          0  HIT:          0  MISS:          0
L1I PREFETCH  REQUESTED:    2885067  ISSUED:    2884954  USEFUL:     978561  USELESS:     471174
L1I AVERAGE MISS LATENCY: 28.8568 cycles
L2C TOTAL     ACCESS:    7741172  HIT:    6682738  MISS:    1058434
L2C LOAD      ACCESS:    2324151  HIT:    2100820  MISS:     223331
L2C RFO       ACCESS:     103541  HIT:      63608  MISS:      39933
L2C PREFETCH  ACCESS:    5056612  HIT:    4262653  MISS:     793959
L2C WRITEBACK ACCESS:     256868  HIT:     255657  MISS:       1211
L2C PREFETCH  REQUESTED:    6757192  ISSUED:    6754867  USEFUL:      24898  USELESS:     768152
L2C AVERAGE MISS LATENCY: 48.0066 cycles
LLC TOTAL     ACCESS:    2358819  HIT:    2224915  MISS:     133904
LLC LOAD      ACCESS:     223076  HIT:     203459  MISS:      19617
LLC RFO       ACCESS:      39927  HIT:      31015  MISS:       8912
LLC PREFETCH  ACCESS:    1958601  HIT:    1853461  MISS:     105140
LLC WRITEBACK ACCESS:     137215  HIT:     136980  MISS:        235
LLC PREFETCH  REQUESTED:          0  ISSUED:          0  USEFUL:       9780  USELESS:      92418
LLC AVERAGE MISS LATENCY: 173.91 cycles
Major fault: 0 Minor fault: 6355
Prefetcher storage:
 Miss Ahead Prediction Table 73728 bytes
 I-Shadow cache 408 bytes
Touched + WorthPF tables 24576 bytes 
MMA filter 123 bytes 
FNL filter 272 bytes 
TOTAL PREFETCHER STORAGE SIZE: 99107 bytes
CPU 0 L1I next line prefetcher final stats
CPU 0 L1D next line prefetcher final stats

DRAM Statistics
 CHANNEL 0
 RQ ROW_BUFFER_HIT:      26158  ROW_BUFFER_MISS:     107499
 DBUS_CONGESTED:      59090
 WQ ROW_BUFFER_HIT:       8904  ROW_BUFFER_MISS:      38094  FULL:          0

 AVG_CONGESTED_CYCLE: 5

CPU 0 Branch Prediction Accuracy: 99.4713% MPKI: 1.11484 Average ROB Occupancy at Mispredict: 116.066

Branch types
NOT_BRANCH: 39456615 78.9132%
BRANCH_DIRECT_JUMP: 445350 0.8907%
BRANCH_INDIRECT: 131149 0.262298%
BRANCH_CONDITIONAL: 8130196 16.2604%
BRANCH_DIRECT_CALL: 732485 1.46497%
BRANCH_INDIRECT_CALL: 172369 0.344738%
BRANCH_RETURN: 931558 1.86312%
BRANCH_OTHER: 0 0%

