Initialize SIGNATURE TABLE
ST_SET: 1
ST_WAY: 256
ST_TAG_BIT: 16
ST_TAG_MASK: ffff

Initialize PATTERN TABLE
PT_SET: 512
PT_WAY: 4
SIG_DELTA_BIT: 7
C_SIG_BIT: 4
C_DELTA_BIT: 4

Initialize PREFETCH FILTER
FILTER_SET: 1024

*** ChampSim Multicore Out-of-Order Simulator ***

Warmup Instructions: 50000000
Simulation Instructions: 50000000
Number of CPUs: 1
LLC sets: 2048
LLC ways: 16
Off-chip DRAM Size: 4096 MB Channels: 1 Width: 64-bit Data Rate: 3200 MT/s

CPU 0 runs /home/sankara2004/240C/hw1/ChampSim/ipc1_public/server_016.champsimtrace.xz
CPU 0 L1D next line prefetcher
Heartbeat CPU 0 instructions: 10000000 cycles: 3509801 heartbeat IPC: 2.84916 cumulative IPC: 2.84916 (Simulation time: 0 hr 1 min 10 sec) 
Heartbeat CPU 0 instructions: 20000000 cycles: 7019274 heartbeat IPC: 2.84943 cumulative IPC: 2.8493 (Simulation time: 0 hr 2 min 19 sec) 
Heartbeat CPU 0 instructions: 30000001 cycles: 10524093 heartbeat IPC: 2.85321 cumulative IPC: 2.8506 (Simulation time: 0 hr 3 min 30 sec) 
Heartbeat CPU 0 instructions: 40000000 cycles: 13825038 heartbeat IPC: 3.02944 cumulative IPC: 2.8933 (Simulation time: 0 hr 4 min 16 sec) 
Heartbeat CPU 0 instructions: 50000002 cycles: 17060503 heartbeat IPC: 3.09075 cumulative IPC: 2.93075 (Simulation time: 0 hr 4 min 54 sec) 

Warmup complete CPU 0 instructions: 50000002 cycles: 17060503 (Simulation time: 0 hr 4 min 54 sec) 

Heartbeat CPU 0 instructions: 60000000 cycles: 25023042 heartbeat IPC: 1.25588 cumulative IPC: 1.25588 (Simulation time: 0 hr 6 min 7 sec) 
Heartbeat CPU 0 instructions: 70000001 cycles: 31890087 heartbeat IPC: 1.45623 cumulative IPC: 1.34866 (Simulation time: 0 hr 7 min 32 sec) 
Heartbeat CPU 0 instructions: 80000001 cycles: 38860219 heartbeat IPC: 1.43469 cumulative IPC: 1.37616 (Simulation time: 0 hr 8 min 57 sec) 
Heartbeat CPU 0 instructions: 90000000 cycles: 45600308 heartbeat IPC: 1.48366 cumulative IPC: 1.40155 (Simulation time: 0 hr 10 min 21 sec) 
Heartbeat CPU 0 instructions: 100000000 cycles: 52472806 heartbeat IPC: 1.45508 cumulative IPC: 1.41194 (Simulation time: 0 hr 11 min 45 sec) 
Finished CPU 0 instructions: 50000002 cycles: 35412304 cumulative IPC: 1.41194 (Simulation time: 0 hr 11 min 45 sec) 

ChampSim completed all CPUs

Region of Interest Statistics

CPU 0 cumulative IPC: 1.41194 instructions: 50000002 cycles: 35412304
L1D TOTAL     ACCESS:   17939166  HIT:   16671884  MISS:    1267282
L1D LOAD      ACCESS:    6519340  HIT:    5944603  MISS:     574737
L1D RFO       ACCESS:    5187354  HIT:    4965374  MISS:     221980
L1D PREFETCH  ACCESS:    6232472  HIT:    5761907  MISS:     470565
L1D WRITEBACK ACCESS:          0  HIT:          0  MISS:          0
L1D PREFETCH  REQUESTED:    6562859  ISSUED:    6456952  USEFUL:     111520  USELESS:     359063
L1D AVERAGE MISS LATENCY: 25.6542 cycles
L1I TOTAL     ACCESS:   21511513  HIT:   16843178  MISS:    4668335
L1I LOAD      ACCESS:    9930464  HIT:    9828633  MISS:     101831
L1I RFO       ACCESS:          0  HIT:          0  MISS:          0
L1I PREFETCH  ACCESS:   11581049  HIT:    7014545  MISS:    4566504
L1I WRITEBACK ACCESS:          0  HIT:          0  MISS:          0
L1I PREFETCH  REQUESTED:   11688124  ISSUED:   11662467  USEFUL:    2178985  USELESS:    2387495
L1I AVERAGE MISS LATENCY: 16.9521 cycles
L2C TOTAL     ACCESS:    8047894  HIT:    7289071  MISS:     758823
L2C LOAD      ACCESS:     572781  HIT:     436072  MISS:     136709
L2C RFO       ACCESS:     220348  HIT:     135511  MISS:      84837
L2C PREFETCH  ACCESS:    6826574  HIT:    6300101  MISS:     526473
L2C WRITEBACK ACCESS:     428191  HIT:     417387  MISS:      10804
L2C PREFETCH  REQUESTED:    4218637  ISSUED:    4212392  USEFUL:      16201  USELESS:     509592
L2C AVERAGE MISS LATENCY: 37.3183 cycles
LLC TOTAL     ACCESS:    1990399  HIT:    1955108  MISS:      35291
LLC LOAD      ACCESS:     136592  HIT:     132619  MISS:       3973
LLC RFO       ACCESS:      84821  HIT:      71212  MISS:      13609
LLC PREFETCH  ACCESS:    1626401  HIT:    1608778  MISS:      17623
LLC WRITEBACK ACCESS:     142585  HIT:     142499  MISS:         86
LLC PREFETCH  REQUESTED:          0  ISSUED:          0  USEFUL:       1575  USELESS:      16202
LLC AVERAGE MISS LATENCY: 179.342 cycles
Major fault: 0 Minor fault: 2384
CPU 0 L1D next line prefetcher final stats

DRAM Statistics
 CHANNEL 0
 RQ ROW_BUFFER_HIT:      11223  ROW_BUFFER_MISS:      23980
 DBUS_CONGESTED:      22442
 WQ ROW_BUFFER_HIT:       1465  ROW_BUFFER_MISS:      14488  FULL:          0

 AVG_CONGESTED_CYCLE: 6

CPU 0 Branch Prediction Accuracy: 99.7225% MPKI: 0.50376 Average ROB Occupancy at Mispredict: 130.64

Branch types
NOT_BRANCH: 40923986 81.848%
BRANCH_DIRECT_JUMP: 487045 0.97409%
BRANCH_INDIRECT: 169158 0.338316%
BRANCH_CONDITIONAL: 6640826 13.2817%
BRANCH_DIRECT_CALL: 755591 1.51118%
BRANCH_INDIRECT_CALL: 133962 0.267924%
BRANCH_RETURN: 889567 1.77913%
BRANCH_OTHER: 0 0%

