Initialize SIGNATURE TABLE
ST_SET: 1
ST_WAY: 256
ST_TAG_BIT: 16
ST_TAG_MASK: ffff

Initialize PATTERN TABLE
PT_SET: 512
PT_WAY: 4
SIG_DELTA_BIT: 7
C_SIG_BIT: 4
C_DELTA_BIT: 4

Initialize PREFETCH FILTER
FILTER_SET: 1024

*** ChampSim Multicore Out-of-Order Simulator ***

Warmup Instructions: 50000000
Simulation Instructions: 50000000
Number of CPUs: 1
LLC sets: 2048
LLC ways: 16
Off-chip DRAM Size: 4096 MB Channels: 1 Width: 64-bit Data Rate: 3200 MT/s

CPU 0 runs /home/sankara2004/240C/hw1/ChampSim/ipc1_public/server_029.champsimtrace.xz
CPU 0 L1I next line prefetcher
CPU 0 L1D next line prefetcher
Heartbeat CPU 0 instructions: 10000001 cycles: 3491791 heartbeat IPC: 2.86386 cumulative IPC: 2.86386 (Simulation time: 0 hr 0 min 32 sec) 
Heartbeat CPU 0 instructions: 20000002 cycles: 6985119 heartbeat IPC: 2.8626 cumulative IPC: 2.86323 (Simulation time: 0 hr 1 min 4 sec) 
Heartbeat CPU 0 instructions: 30000003 cycles: 10479803 heartbeat IPC: 2.86149 cumulative IPC: 2.86265 (Simulation time: 0 hr 1 min 36 sec) 
Heartbeat CPU 0 instructions: 40000000 cycles: 13981182 heartbeat IPC: 2.85602 cumulative IPC: 2.86099 (Simulation time: 0 hr 2 min 8 sec) 
Heartbeat CPU 0 instructions: 50000000 cycles: 17481731 heartbeat IPC: 2.85669 cumulative IPC: 2.86013 (Simulation time: 0 hr 2 min 40 sec) 

Warmup complete CPU 0 instructions: 50000004 cycles: 17481732 (Simulation time: 0 hr 2 min 40 sec) 

Heartbeat CPU 0 instructions: 60000000 cycles: 25043313 heartbeat IPC: 1.32247 cumulative IPC: 1.32247 (Simulation time: 0 hr 3 min 19 sec) 
Heartbeat CPU 0 instructions: 70000003 cycles: 32755221 heartbeat IPC: 1.2967 cumulative IPC: 1.30946 (Simulation time: 0 hr 3 min 58 sec) 
Heartbeat CPU 0 instructions: 80000002 cycles: 40298699 heartbeat IPC: 1.32565 cumulative IPC: 1.31481 (Simulation time: 0 hr 4 min 38 sec) 
*** Reached end of trace for Core: 0 Repeating trace: /home/sankara2004/240C/hw1/ChampSim/ipc1_public/server_029.champsimtrace.xz
Heartbeat CPU 0 instructions: 90000000 cycles: 47768186 heartbeat IPC: 1.33878 cumulative IPC: 1.32072 (Simulation time: 0 hr 5 min 17 sec) 
Heartbeat CPU 0 instructions: 100000003 cycles: 55226428 heartbeat IPC: 1.3408 cumulative IPC: 1.32469 (Simulation time: 0 hr 5 min 56 sec) 
Finished CPU 0 instructions: 50000003 cycles: 37744697 cumulative IPC: 1.32469 (Simulation time: 0 hr 5 min 56 sec) 

ChampSim completed all CPUs

Region of Interest Statistics

CPU 0 cumulative IPC: 1.32469 instructions: 50000003 cycles: 37744697
L1D TOTAL     ACCESS:   19102390  HIT:   17005972  MISS:    2096418
L1D LOAD      ACCESS:    6755098  HIT:    5688984  MISS:    1066114
L1D RFO       ACCESS:    6108625  HIT:    5823042  MISS:     285583
L1D PREFETCH  ACCESS:    6238667  HIT:    5493946  MISS:     744721
L1D WRITEBACK ACCESS:          0  HIT:          0  MISS:          0
L1D PREFETCH  REQUESTED:    6816957  ISSUED:    6711372  USEFUL:     174797  USELESS:     569914
L1D AVERAGE MISS LATENCY: 21.6759 cycles
L1I TOTAL     ACCESS:   15078171  HIT:   11133179  MISS:    3944992
L1I LOAD      ACCESS:    9693723  HIT:    9426565  MISS:     267158
L1I RFO       ACCESS:          0  HIT:          0  MISS:          0
L1I PREFETCH  ACCESS:    5384448  HIT:    1706614  MISS:    3677834
L1I WRITEBACK ACCESS:          0  HIT:          0  MISS:          0
L1I PREFETCH  REQUESTED:    5745647  ISSUED:    5745622  USEFUL:    2745621  USELESS:     932254
L1I AVERAGE MISS LATENCY: 17.4112 cycles
L2C TOTAL     ACCESS:    8361213  HIT:    7595823  MISS:     765390
L2C LOAD      ACCESS:    1069377  HIT:     904229  MISS:     165148
L2C RFO       ACCESS:     283545  HIT:     228095  MISS:      55450
L2C PREFETCH  ACCESS:    6397765  HIT:    5854710  MISS:     543055
L2C WRITEBACK ACCESS:     610526  HIT:     608789  MISS:       1737
L2C PREFETCH  REQUESTED:    8584617  ISSUED:    8558018  USEFUL:      15750  USELESS:     526655
L2C AVERAGE MISS LATENCY: 41.9883 cycles
LLC TOTAL     ACCESS:    2723302  HIT:    2649898  MISS:      73404
LLC LOAD      ACCESS:     165044  HIT:     148057  MISS:      16987
LLC RFO       ACCESS:      55449  HIT:      51818  MISS:       3631
LLC PREFETCH  ACCESS:    2391375  HIT:    2339141  MISS:      52234
LLC WRITEBACK ACCESS:     111434  HIT:     110882  MISS:        552
LLC PREFETCH  REQUESTED:          0  ISSUED:          0  USEFUL:       2507  USELESS:      50436
LLC AVERAGE MISS LATENCY: 157.754 cycles
Major fault: 0 Minor fault: 5919
Prefetcher storage:
 Miss Ahead Prediction Table 73728 bytes
 I-Shadow cache 408 bytes
Touched + WorthPF tables 24576 bytes 
MMA filter 123 bytes 
FNL filter 272 bytes 
TOTAL PREFETCHER STORAGE SIZE: 99107 bytes
CPU 0 L1I next line prefetcher final stats
CPU 0 L1D next line prefetcher final stats

DRAM Statistics
 CHANNEL 0
 RQ ROW_BUFFER_HIT:      21040  ROW_BUFFER_MISS:      51792
 DBUS_CONGESTED:      31732
 WQ ROW_BUFFER_HIT:        529  ROW_BUFFER_MISS:       3999  FULL:          0

 AVG_CONGESTED_CYCLE: 5

CPU 0 Branch Prediction Accuracy: 99.7245% MPKI: 0.51862 Average ROB Occupancy at Mispredict: 144.995

Branch types
NOT_BRANCH: 40586619 81.1732%
BRANCH_DIRECT_JUMP: 525211 1.05042%
BRANCH_INDIRECT: 166359 0.332718%
BRANCH_CONDITIONAL: 6373093 12.7462%
BRANCH_DIRECT_CALL: 989263 1.97853%
BRANCH_INDIRECT_CALL: 184984 0.369968%
BRANCH_RETURN: 1174250 2.3485%
BRANCH_OTHER: 0 0%

