Initialize SIGNATURE TABLE
ST_SET: 1
ST_WAY: 256
ST_TAG_BIT: 16
ST_TAG_MASK: ffff

Initialize PATTERN TABLE
PT_SET: 512
PT_WAY: 4
SIG_DELTA_BIT: 7
C_SIG_BIT: 4
C_DELTA_BIT: 4

Initialize PREFETCH FILTER
FILTER_SET: 1024

*** ChampSim Multicore Out-of-Order Simulator ***

Warmup Instructions: 50000000
Simulation Instructions: 50000000
Number of CPUs: 1
LLC sets: 2048
LLC ways: 16
Off-chip DRAM Size: 4096 MB Channels: 1 Width: 64-bit Data Rate: 3200 MT/s

CPU 0 runs /home/sankara2004/240C/hw1/ChampSim/ipc1_public/spec_x264_001.champsimtrace.xz
CPU 0 L1I next line prefetcher
CPU 0 L1D next line prefetcher
Heartbeat CPU 0 instructions: 10000002 cycles: 3059952 heartbeat IPC: 3.26803 cumulative IPC: 3.26803 (Simulation time: 0 hr 0 min 22 sec) 
Heartbeat CPU 0 instructions: 20000002 cycles: 6110163 heartbeat IPC: 3.27846 cumulative IPC: 3.27324 (Simulation time: 0 hr 0 min 43 sec) 
Heartbeat CPU 0 instructions: 30000002 cycles: 9145814 heartbeat IPC: 3.29419 cumulative IPC: 3.28019 (Simulation time: 0 hr 1 min 5 sec) 
Heartbeat CPU 0 instructions: 40000000 cycles: 12190369 heartbeat IPC: 3.28455 cumulative IPC: 3.28128 (Simulation time: 0 hr 1 min 27 sec) 
Heartbeat CPU 0 instructions: 50000000 cycles: 15233403 heartbeat IPC: 3.28619 cumulative IPC: 3.28226 (Simulation time: 0 hr 1 min 49 sec) 

Warmup complete CPU 0 instructions: 50000004 cycles: 15233404 (Simulation time: 0 hr 1 min 49 sec) 

Heartbeat CPU 0 instructions: 60000002 cycles: 21163460 heartbeat IPC: 1.68632 cumulative IPC: 1.68632 (Simulation time: 0 hr 2 min 9 sec) 
Heartbeat CPU 0 instructions: 70000000 cycles: 27073302 heartbeat IPC: 1.69209 cumulative IPC: 1.6892 (Simulation time: 0 hr 2 min 30 sec) 
Heartbeat CPU 0 instructions: 80000003 cycles: 33128901 heartbeat IPC: 1.65136 cumulative IPC: 1.6764 (Simulation time: 0 hr 2 min 50 sec) 
Heartbeat CPU 0 instructions: 90000002 cycles: 39162223 heartbeat IPC: 1.65746 cumulative IPC: 1.67162 (Simulation time: 0 hr 3 min 11 sec) 
Heartbeat CPU 0 instructions: 100000002 cycles: 45059084 heartbeat IPC: 1.69582 cumulative IPC: 1.67641 (Simulation time: 0 hr 3 min 31 sec) 
Finished CPU 0 instructions: 50000002 cycles: 29825681 cumulative IPC: 1.67641 (Simulation time: 0 hr 3 min 31 sec) 

ChampSim completed all CPUs

Region of Interest Statistics

CPU 0 cumulative IPC: 1.67641 instructions: 50000002 cycles: 29825681
L1D TOTAL     ACCESS:   12967563  HIT:   12806531  MISS:     161032
L1D LOAD      ACCESS:    5095946  HIT:    5040932  MISS:      55014
L1D RFO       ACCESS:    2880750  HIT:    2846381  MISS:      34369
L1D PREFETCH  ACCESS:    4990867  HIT:    4919218  MISS:      71649
L1D WRITEBACK ACCESS:          0  HIT:          0  MISS:          0
L1D PREFETCH  REQUESTED:    5112537  ISSUED:    5045389  USEFUL:      25793  USELESS:      45665
L1D AVERAGE MISS LATENCY: 39.8795 cycles
L1I TOTAL     ACCESS:    8613551  HIT:    8231172  MISS:     382379
L1I LOAD      ACCESS:    8039917  HIT:    8033194  MISS:       6723
L1I RFO       ACCESS:          0  HIT:          0  MISS:          0
L1I PREFETCH  ACCESS:     573634  HIT:     197978  MISS:     375656
L1I WRITEBACK ACCESS:          0  HIT:          0  MISS:          0
L1I PREFETCH  REQUESTED:     586763  ISSUED:     586763  USEFUL:     297012  USELESS:      78671
L1I AVERAGE MISS LATENCY: 14.7343 cycles
L2C TOTAL     ACCESS:     775371  HIT:     736587  MISS:      38784
L2C LOAD      ACCESS:      58810  HIT:      53490  MISS:       5320
L2C RFO       ACCESS:      34184  HIT:      22115  MISS:      12069
L2C PREFETCH  ACCESS:     639228  HIT:     617909  MISS:      21319
L2C WRITEBACK ACCESS:      43149  HIT:      43073  MISS:         76
L2C PREFETCH  REQUESTED:     628617  ISSUED:     626909  USEFUL:       8873  USELESS:      12637
L2C AVERAGE MISS LATENCY: 104.121 cycles
LLC TOTAL     ACCESS:     142229  HIT:     113117  MISS:      29112
LLC LOAD      ACCESS:       5319  HIT:       3204  MISS:       2115
LLC RFO       ACCESS:      12069  HIT:        449  MISS:      11620
LLC PREFETCH  ACCESS:     111229  HIT:      95924  MISS:      15305
LLC WRITEBACK ACCESS:      13612  HIT:      13540  MISS:         72
LLC PREFETCH  REQUESTED:          0  ISSUED:          0  USEFUL:       1689  USELESS:      13982
LLC AVERAGE MISS LATENCY: 165.98 cycles
Major fault: 0 Minor fault: 1284
Prefetcher storage:
 Miss Ahead Prediction Table 73728 bytes
 I-Shadow cache 408 bytes
Touched + WorthPF tables 24576 bytes 
MMA filter 123 bytes 
FNL filter 272 bytes 
TOTAL PREFETCHER STORAGE SIZE: 99107 bytes
CPU 0 L1I next line prefetcher final stats
CPU 0 L1D next line prefetcher final stats

DRAM Statistics
 CHANNEL 0
 RQ ROW_BUFFER_HIT:       8984  ROW_BUFFER_MISS:      20056
 DBUS_CONGESTED:      12561
 WQ ROW_BUFFER_HIT:       2937  ROW_BUFFER_MISS:       9834  FULL:          0

 AVG_CONGESTED_CYCLE: 6

CPU 0 Branch Prediction Accuracy: 97.1633% MPKI: 1.73704 Average ROB Occupancy at Mispredict: 42.7988

Branch types
NOT_BRANCH: 46937921 93.8758%
BRANCH_DIRECT_JUMP: 170816 0.341632%
BRANCH_INDIRECT: 0 0%
BRANCH_CONDITIONAL: 2532774 5.06555%
BRANCH_DIRECT_CALL: 114227 0.228454%
BRANCH_INDIRECT_CALL: 64863 0.129726%
BRANCH_RETURN: 179089 0.358178%
BRANCH_OTHER: 0 0%

